@!IC, SBASE,REV,XFRRAT,NXFRAT,BASFRQ
0,   100.00, 34,     0,     1, 50.00     / PSS(R)E-34.8    THU, APR 20 2023  14:09
PREVISIÛN M·X MEDIODÌA INV 2020, TOTAL PAÌS  1862 MW
HISTÛRICO  05JUL2019, H1145, DEMANDA 1730 MW
GENERAL, THRSHZ=0.0001, PQBRAK=0.7, BLOWUP=5.0
GAUSS, ITMX=100, ACCP=1.6, ACCQ=1.6, ACCM=1.0, TOL=0.0001
NEWTON, ITMXN=20, ACCN=1.0, TOLN=0.1, VCTOLQ=0.1, VCTOLV=0.00001, DVLIM=0.99, NDVFCT=0.99
ADJUST, ADJTHR=0.005, ACCTAP=1.0, TAPLIM=0.05, SWVBND=100.0, MXTPSS=99, MXSWIM=10
TYSL, ITMXTY=20, ACCTY=1.0, TOLTY=0.00001
SOLVER, FDNS, ACTAPS=0, AREAIN=0, PHSHFT=0, DCTAPS=1, SWSHNT=0, FLATST=0, VARLIM=99, NONDIV=0
RATING, 1, "RATE1 ", "RATING SET 1                    "
RATING, 2, "RATE2 ", "RATING SET 2                    "
RATING, 3, "RATE3 ", "RATING SET 3                    "
RATING, 4, "RATE4 ", "RATING SET 4                    "
RATING, 5, "RATE5 ", "RATING SET 5                    "
RATING, 6, "RATE6 ", "RATING SET 6                    "
RATING, 7, "RATE7 ", "RATING SET 7                    "
RATING, 8, "RATE8 ", "RATING SET 8                    "
RATING, 9, "RATE9 ", "RATING SET 9                    "
RATING,10, "RATE10", "RATING SET 10                   "
RATING,11, "RATE11", "RATING SET 11                   "
RATING,12, "RATE12", "RATING SET 12                   "
0 / END OF SYSTEM-WIDE DATA, BEGIN BUS DATA
@!   I,'NAME        ', BASKV, IDE,AREA,ZONE,OWNER, VM,        VA,    NVHI,   NVLO,   EVHI,   EVLO
 92670,'ACO150_B    ', 150.0000,1,  99, 906, 901,1.03751,  -5.5996,1.10000,0.90000,1.10000,0.90000
 92060,'ARA150_B    ', 150.0000,1,  99, 908, 901,1.05099,   1.1028,1.10000,0.90000,1.10000,0.90000
 92491,'ARB150P1    ', 150.0000,1,  99, 905, 901,1.11299,  -6.1448,1.10000,0.90000,1.10000,0.90000
 92492,'ARB150P2    ', 150.0000,1,  99, 905, 901,1.11261,  -6.1011,1.10000,0.90000,1.10000,0.90000
 92490,'ARB150_B    ', 150.0000,2,  99, 905, 901,1.11280,  -6.1230,1.10000,0.90000,1.10000,0.90000
 92090,'ART150_B    ', 150.0000,1,  99, 908, 901,1.08081,   1.4194,1.10000,0.90000,1.10000,0.90000
 92550,'BAY150_B    ', 150.0000,2,  99, 906, 901,1.04148,  -5.2919,1.10000,0.90000,1.10000,0.90000
 92710,'BIF150_B    ', 150.0000,2,  99, 904, 901,1.04196,  -6.0512,1.10000,0.90000,1.10000,0.90000
 92790,'BOB150_B    ', 150.0000,2,  99, 906, 901,1.06411,  -6.8118,1.10000,0.90000,1.10000,0.90000
 92540,'BON150_B    ', 150.0000,2,  99, 906, 901,1.06416,  -6.8033,1.10000,0.90000,1.10000,0.90000
 90160,'BRU500_B    ', 500.0000,2,  99, 902, 901,1.04200,  -1.5219,1.10000,0.90000,1.10000,0.90000
  4004,'C.ELIA      ', 500.0000,1,   2,   4,  10,1.02259,  -0.2418,1.10000,0.90000,1.10000,0.90000
 92740,'CGR150_B    ', 150.0000,1,  99, 904, 901,1.04198,  -6.9683,1.10000,0.90000,1.10000,0.90000
 92061,'CLFAUX150_B ', 150.0000,2,  99, 908, 901,1.04469,   1.4153,1.10000,0.90000,1.10000,0.90000
 92692,'COE1502P    ', 150.0000,1,  99, 909, 901,1.03379,  -8.5045,1.10000,0.90000,1.10000,0.90000
 92600,'COL150_B    ', 150.0000,1,  99, 909, 901,1.03294,  -8.3363,1.10000,0.90000,1.10000,0.90000
 92690,'CON150_B    ', 150.0000,1,  99, 909, 901,1.03364,  -8.5484,1.10000,0.90000,1.10000,0.90000
 92940,'DOL150_B    ', 150.0000,1,  99, 906, 901,1.03753,  -8.2776,1.10000,0.90000,1.10000,0.90000
 92531,'DUR1501F    ', 150.0000,1,  99, 906, 901,1.05784,  -7.5627,1.10000,0.90000,1.10000,0.90000
 92532,'DUR1502F    ', 150.0000,1,  99, 906, 901,1.06335,  -6.8708,1.10000,0.90000,1.10000,0.90000
 92681,'EFI150_X    ', 150.0000,1,  99, 909, 901,1.03528,  -6.4027,1.10000,0.90000,1.10000,0.90000
 92440,'EMA150_B    ', 150.0000,1,  99, 905, 901,1.11794,  -7.0063,1.10000,0.90000,1.10000,0.90000
 92050,'FBE150_B    ', 150.0000,1,  99, 909, 901,1.04631,  -6.4691,1.10000,0.90000,1.10000,0.90000
 92660,'FBEMER_X    ', 150.0000,1,  99, 909, 901,1.04528,  -6.8745,1.10000,0.90000,1.10000,0.90000
 92661,'FBESJA_X    ', 150.0000,1,  99, 909, 901,1.04799,  -5.9637,1.10000,0.90000,1.10000,0.90000
 92520,'FLO150_B    ', 150.0000,1,  99, 906, 901,1.05465,  -6.6432,1.10000,0.90000,1.10000,0.90000
 92091,'JPT_150B    ', 150.0000,2,  99, 908, 901,1.08062,   2.1366,1.10000,0.90000,1.10000,0.90000
 92485,'LAD150_B    ', 150.0000,2,  99, 902, 904,1.11027,  -5.7874,1.10000,0.90000,1.10000,0.90000
 92620,'LIB150_B    ', 150.0000,1,  99, 909, 901,1.03234,  -7.1991,1.10000,0.90000,1.10000,0.90000
 90100,'MA5500_B    ', 500.0000,1,  99, 902, 901,1.04389,  -2.6866,1.10000,0.90000,1.10000,0.90000
 92730,'MAL150_B    ', 150.0000,1,  99, 904, 901,1.04223,  -6.9068,1.10000,0.90000,1.10000,0.90000
 92460,'MDI150_X    ', 150.0000,1,  99, 907, 901,1.09389,  -6.0397,1.10000,0.90000,1.10000,0.90000
 90480,'ME5500_B    ', 500.0000,1,  99, 902, 901,1.04896,  -4.6165,1.10000,0.90000,1.10000,0.90000
 92481,'MEB150P1    ', 150.0000,1,  99, 905, 901,1.11034,  -5.8274,1.10000,0.90000,1.10000,0.90000
 92482,'MEB150P2    ', 150.0000,1,  99, 905, 901,1.11011,  -5.8464,1.10000,0.90000,1.10000,0.90000
 92480,'MEB150_B    ', 150.0000,1,  99, 902, 901,1.10981,  -5.7816,1.10000,0.90000,1.10000,0.90000
 92450,'MEL150_B    ', 150.0000,1,  99, 905, 901,1.11037,  -5.9443,1.10000,0.90000,1.10000,0.90000
 92611,'MEN150_B    ', 150.0000,2,  99, 909, 904,1.03501,  -7.8217,1.10000,0.90000,1.10000,0.90000
 92640,'MER150_B    ', 150.0000,1,  99, 909, 901,1.04333,  -7.5803,1.10000,0.90000,1.10000,0.90000
 90300,'MI5500_B    ', 500.0000,1,  99, 902, 901,1.04479,  -3.0886,1.10000,0.90000,1.10000,0.90000
 92100,'MVA150_B    ', 150.0000,1,  99, 903, 901,1.04750,  -4.8193,1.10000,0.90000,1.10000,0.90000
 92200,'MVB150_B    ', 150.0000,1,  99, 903, 901,1.04274,  -4.7244,1.10000,0.90000,1.10000,0.90000
 90200,'MVB500_B    ', 500.0000,1,  99, 902, 901,1.04293,  -2.3618,1.10000,0.90000,1.10000,0.90000
 92210,'MVC150_B    ', 150.0000,1,  99, 903, 901,1.04066,  -5.8472,1.10000,0.90000,1.10000,0.90000
 92220,'MVD1501X    ', 150.0000,1,  99, 903, 901,1.04069,  -5.8523,1.10000,0.90000,1.10000,0.90000
 92230,'MVD1502X    ', 150.0000,1,  99, 903, 901,1.04069,  -5.8523,1.10000,0.90000,1.10000,0.90000
 92240,'MVE1501B    ', 150.0000,2,  99, 903, 901,1.04054,  -5.8521,1.10000,0.90000,1.10000,0.90000
 92310,'MVF150_B    ', 150.0000,1,  99, 903, 901,1.04064,  -5.8495,1.10000,0.90000,1.10000,0.90000
 92320,'MVG150_B    ', 150.0000,1,  99, 903, 901,1.04049,  -5.8807,1.10000,0.90000,1.10000,0.90000
 92330,'MVH1501B    ', 150.0000,1,  99, 903, 901,1.04097,  -5.7915,1.10000,0.90000,1.10000,0.90000
 92300,'MVI150_B    ', 150.0000,1,  99, 903, 901,1.04135,  -5.7436,1.10000,0.90000,1.10000,0.90000
 92270,'MVJ150_B    ', 150.0000,1,  99, 903, 901,1.04034,  -5.8839,1.10000,0.90000,1.10000,0.90000
 92340,'MVK150_B    ', 150.0000,1,  99, 903, 901,1.04012,  -5.9312,1.10000,0.90000,1.10000,0.90000
 92124,'MVL150B2    ', 150.0000,2,  99, 903, 901,1.04146,  -5.1314,1.10000,0.90000,1.10000,0.90000
 92141,'MVLMVA_X    ', 150.0000,1,  99, 903, 901,1.04446,  -4.9796,1.10000,0.90000,1.10000,0.90000
 92142,'MVLMVB_X    ', 150.0000,1,  99, 903, 901,1.04219,  -4.9139,1.10000,0.90000,1.10000,0.90000
 92180,'MVM1501X    ', 150.0000,1,  99, 903, 901,1.04320,  -5.4948,1.10000,0.90000,1.10000,0.90000
 92350,'MVR1501B    ', 150.0000,1,  99, 903, 901,1.04080,  -5.8495,1.10000,0.90000,1.10000,0.90000
 92360,'MVR1502B    ', 150.0000,1,  99, 903, 901,1.04119,  -5.4546,1.10000,0.90000,1.10000,0.90000
 92110,'NOR1501B    ', 150.0000,1,  99, 903, 901,1.04571,  -5.0443,1.10000,0.90000,1.10000,0.90000
 92111,'NOR1502B    ', 150.0000,1,  99, 903, 901,1.04076,  -5.6536,1.10000,0.90000,1.10000,0.90000
 92650,'NPA150_B    ', 150.0000,1,  99, 909, 901,1.03243,  -8.7293,1.10000,0.90000,1.10000,0.90000
 92500,'PAL150_B    ', 150.0000,1,  99, 906, 901,0.99082,  -1.7904,1.10000,0.90000,1.10000,0.90000
 90500,'PAL500_B    ', 500.0000,2,  99, 902, 901,1.03352,  -0.2968,1.10000,0.90000,1.10000,0.90000
 92411,'PAM150_B    ', 150.0000,2,  99, 907, 901,1.08511,  -6.7770,1.10000,0.90000,1.10000,0.90000
 92770,'PAN150_B    ', 150.0000,1,  99, 903, 901,1.03827,  -5.7247,1.10000,0.90000,1.10000,0.90000
 92771,'PAN150_F    ', 150.0000,1,  99, 903, 901,1.04570,  -5.3242,1.10000,0.90000,1.10000,0.90000
 92030,'PAY150_B    ', 150.0000,1,  99, 908, 901,1.03479,  -6.9265,1.10000,0.90000,1.10000,0.90000
 92721,'PAZ1501B    ', 150.0000,1,  99, 904, 901,1.04203,  -6.3772,1.10000,0.90000,1.10000,0.90000
 92722,'PAZ1502B    ', 150.0000,1,  99, 904, 901,1.04287,  -6.5101,1.10000,0.90000,1.10000,0.90000
 92830,'PAZMAL_X    ', 150.0000,1,  99, 904, 901,1.04267,  -6.7585,1.10000,0.90000,1.10000,0.90000
 92780,'PAZSCA_X    ', 150.0000,1,  99, 904, 901,1.04441,  -6.2747,1.10000,0.90000,1.10000,0.90000
 92562,'PBE150BX    ', 150.0000,1,  99, 906, 901,1.03852,  -5.4428,1.10000,0.90000,1.10000,0.90000
 92561,'PBE150RX    ', 150.0000,1,  99, 906, 901,1.03769,  -5.6825,1.10000,0.90000,1.10000,0.90000
 92750,'PES150_B    ', 150.0000,1,  99, 904, 901,1.04191,  -6.9772,1.10000,0.90000,1.10000,0.90000
 92510,'PIA150_B    ', 150.0000,1,  99, 906, 901,1.05802,  -6.8628,1.10000,0.90000,1.10000,0.90000
 92910,'PIB150_B    ', 150.0000,2,  99, 906, 901,1.05811,  -6.8640,1.10000,0.90000,1.10000,0.90000
 92280,'PIE150_B    ', 150.0000,1,  99, 903, 901,1.03844,  -5.0710,1.10000,0.90000,1.10000,0.90000
 92524,'POL150_B    ', 150.0000,2,  99, 906, 904,1.05466,  -6.6433,1.10000,0.90000,1.10000,0.90000
 92131,'PRO1501X    ', 150.0000,1,  99, 906, 901,1.04911,  -5.1297,1.10000,0.90000,1.10000,0.90000
 92132,'PRO1502X    ', 150.0000,1,  99, 906, 901,1.04911,  -5.1297,1.10000,0.90000,1.10000,0.90000
 92400,'RIV150_B    ', 150.0000,2,  99, 907, 901,1.08587,  -4.6958,1.10000,0.90000,1.10000,0.90000
 92760,'ROC150_B    ', 150.0000,2,  99, 904, 901,1.04531,  -6.9013,1.10000,0.90000,1.10000,0.90000
 92580,'ROD150_B    ', 150.0000,1,  99, 906, 901,1.03803,  -6.0298,1.10000,0.90000,1.10000,0.90000
 92610,'ROS150_B    ', 150.0000,1,  99, 909, 901,1.03593,  -7.4525,1.10000,0.90000,1.10000,0.90000
 92040,'SAL150_B    ', 150.0000,2,  99, 908, 901,1.01760,  -1.5509,1.10000,0.90000,1.10000,0.90000
 90700,'SC5500_B    ', 500.0000,1,  99, 902, 901,1.05153,  -4.0332,1.10000,0.90000,1.10000,0.90000
 92700,'SCA150_B    ', 150.0000,2,  99, 904, 901,1.04490,  -6.2282,1.10000,0.90000,1.10000,0.90000
 92801,'SCAMAL1X    ', 150.0000,1,  99, 904, 901,1.04410,  -6.4607,1.10000,0.90000,1.10000,0.90000
 92810,'SCAMAL2X    ', 150.0000,1,  99, 904, 901,1.04415,  -6.4752,1.10000,0.90000,1.10000,0.90000
 92791,'SCAROC_X    ', 150.0000,1,  99, 904, 901,1.04529,  -6.3022,1.10000,0.90000,1.10000,0.90000
  4008,'SGDE.ARG    ', 500.0000,3,   2,   4,  10,1.00000,   0.0000,1.10000,0.90000,1.10000,0.90000
 90080,'SJ5500_B    ', 500.0000,1,  99, 901, 901,1.02472,  -0.2698,1.10000,0.90000,1.10000,0.90000
 92080,'SJA150_B    ', 150.0000,1,  99, 901, 901,1.05631,  -2.8092,1.10000,0.90000,1.10000,0.90000
 92380,'SOL150_B    ', 150.0000,1,  99, 903, 901,1.04094,  -5.8059,1.10000,0.90000,1.10000,0.90000
 92470,'STE150_B    ', 150.0000,1,  99, 907, 901,1.09404,  -6.0499,1.10000,0.90000,1.10000,0.90000
 92000,'SU5150_B    ', 150.0000,1,  99, 901, 901,1.01847,  -0.3794,1.10000,0.90000,1.10000,0.90000
 90000,'SU5500_B    ', 500.0000,2,  99, 901, 901,1.00122,   0.1098,1.10000,0.90000,1.10000,0.90000
 92630,'SVA150_B    ', 150.0000,1,  99, 909, 901,1.03690,  -6.1957,1.10000,0.90000,1.10000,0.90000
 92412,'TAB150_B    ', 150.0000,1,  99, 907, 901,1.09685,  -6.6853,1.10000,0.90000,1.10000,0.90000
 92410,'TAC150_B    ', 150.0000,1,  99, 907, 901,1.09508,  -6.6772,1.10000,0.90000,1.10000,0.90000
 92070,'TGO150_B    ', 150.0000,1,  99, 908, 901,1.06464,   0.8698,1.10000,0.90000,1.10000,0.90000
 92590,'TRI150_B    ', 150.0000,2,  99, 906, 901,1.03032,  -5.0595,1.10000,0.90000,1.10000,0.90000
 92430,'TYT150_B    ', 150.0000,1,  99, 905, 901,1.11525,  -6.9249,1.10000,0.90000,1.10000,0.90000
 92420,'VAL150_B    ', 150.0000,2,  99, 905, 901,1.10435,  -7.2194,1.10000,0.90000,1.10000,0.90000
 92020,'YOU150_B    ', 150.0000,1,  99, 906, 901,1.04483,  -7.4938,1.10000,0.90000,1.10000,0.90000
0 / END OF BUS DATA, BEGIN LOAD DATA
@!        'I',       'ID',STAT,AREA,ZONE,      PL,        QL,        IP,        IQ,        YP,        YQ, OWNER,SCALE,INTRPT,  DGENP,     DGENQ, DGENF
'ACO150_B    150.00','1 ',   1,  99, 906,    16.148,     7.872,     0.000,     0.000,     0.000,     0.000, 903,    0,  0,     0.000,     0.000,   0
'ARA150_B    150.00','1 ',   0,  99, 908,    -3.366,     0.620,     0.000,     0.000,     0.000,     0.000, 901,    1,  0,     0.000,     0.000,   0
'ARA150_B    150.00','2 ',   0,  99, 908,    -3.425,    -0.591,     0.000,     0.000,     0.000,     0.000, 901,    1,  0,     0.000,     0.000,   0
'ARA150_B    150.00','G1',   1,  99, 908,     7.694,     0.000,     0.000,     0.000,     0.000,     0.000, 901,    1,  0,     0.000,     0.000,   0
'ART150_B    150.00','1 ',   1,  99, 908,     4.121,    -0.848,     0.000,     0.000,     0.000,     0.000, 901,    1,  0,     0.000,     0.000,   0
'ART150_B    150.00','2 ',   1,  99, 908,     4.461,     2.230,     0.000,     0.000,     0.000,     0.000, 901,    1,  0,     0.000,     0.000,   0
'BIF150_B    150.00','1 ',   1,  99, 904,     8.052,     3.030,     0.000,     0.000,     0.000,     0.000, 901,    1,  0,     0.000,     0.000,   0
'BIF150_B    150.00','2 ',   1,  99, 904,     7.735,     3.030,     0.000,     0.000,     0.000,     0.000, 901,    1,  0,     0.000,     0.000,   0
'BIF150_B    150.00','G1',   1,  99, 904,     8.216,     0.000,     0.000,     0.000,     0.000,     0.000, 901,    1,  0,     0.000,     0.000,   0
'BON150_B    150.00','1 ',   1,  99, 906,     4.226,     0.000,     0.000,     0.000,     0.000,     0.000, 901,    1,  0,     0.000,     0.000,   0
'C.ELIA      500.00','1 ',   0,   2,   4,  -698.400,   209.200,     0.000,     0.000,     0.000,     0.000,  10,    1,  0,     0.000,     0.000,   0
'COL150_B    150.00','1 ',   1,  99, 909,     9.843,     1.697,     0.000,     0.000,     0.000,     0.000, 901,    1,  0,     0.000,     0.000,   0
'COL150_B    150.00','2 ',   1,  99, 909,    10.055,     1.654,     0.000,     0.000,     0.000,     0.000, 901,    1,  0,     0.000,     0.000,   0
'COL150_B    150.00','MP',   0,  99, 909,   -40.000,     0.000,     0.000,     0.000,     0.000,     0.000, 910,    0,  0,     0.000,     0.000,   0
'CON150_B    150.00','1 ',   1,  99, 909,     0.770,     0.311,     0.000,     0.000,     0.000,     0.000, 901,    1,  0,     0.000,     0.000,   0
'DOL150_B    150.00','1 ',   1,  99, 906,     3.233,     0.000,     0.000,     0.000,     0.000,     0.000, 901,    1,  0,     0.000,     0.000,   0
'DOL150_B    150.00','2 ',   1,  99, 906,     3.233,     0.323,     0.000,     0.000,     0.000,     0.000, 901,    1,  0,     0.000,     0.000,   0
'DUR1501F    150.00','1 ',   1,  99, 906,    10.228,     1.717,     0.000,     0.000,     0.000,     0.000, 901,    1,  0,     0.000,     0.000,   0
'DUR1501F    150.00','2 ',   1,  99, 906,    10.698,     1.340,     0.000,     0.000,     0.000,     0.000, 901,    1,  0,     0.000,     0.000,   0
'EFI150_X    150.00','1 ',   1,  99, 909,     5.788,     2.495,     0.000,     0.000,     0.000,     0.000, 901,    1,  0,     0.000,     0.000,   0
'EFI150_X    150.00','2 ',   1,  99, 909,     6.876,     2.964,     0.000,     0.000,     0.000,     0.000, 903,    0,  0,     0.000,     0.000,   0
'EMA150_B    150.00','1 ',   0,  99, 905,    -9.213,     0.000,     0.000,     0.000,     0.000,     0.000, 901,    1,  0,     0.000,     0.000,   0
'EMA150_B    150.00','2 ',   1,  99, 905,     0.000,     0.000,     0.000,     0.000,     0.000,     0.000, 901,    1,  0,     0.000,     0.000,   0
'FBE150_B    150.00','1 ',   1,  99, 909,     4.811,     0.602,     0.000,     0.000,     0.000,     0.000, 901,    1,  0,     0.000,     0.000,   0
'FBE150_B    150.00','2 ',   1,  99, 909,     4.669,     0.343,     0.000,     0.000,     0.000,     0.000, 901,    1,  0,     0.000,     0.000,   0
'FBE150_B    150.00','UP',   0,  99, 909,   -11.000,     0.000,     0.000,     0.000,     0.000,     0.000, 910,    0,  0,     0.000,     0.000,   0
'FLO150_B    150.00','1 ',   1,  99, 906,    15.766,     2.344,     0.000,     0.000,     0.000,     0.000, 901,    1,  0,     0.000,     0.000,   0
'FLO150_B    150.00','2 ',   1,  99, 906,    10.021,    -0.485,     0.000,     0.000,     0.000,     0.000, 901,    1,  0,     0.000,     0.000,   0
'LAD150_B    150.00','RL',   0,  99, 905,     0.860,     0.000,     0.000,     0.000,     0.000,     0.000, 904,    0,  0,     0.000,     0.000,   0
'LIB150_B    150.00','1 ',   0,  99, 909,    -2.853,     0.000,     0.000,     0.000,     0.000,     0.000, 901,    1,  0,     0.000,     0.000,   0
'LIB150_B    150.00','2 ',   0,  99, 909,    -5.581,     0.000,     0.000,     0.000,     0.000,     0.000, 901,    1,  0,     0.000,     0.000,   0
'LIB150_B    150.00','G1',   1,  99, 909,    14.095,     0.000,     0.000,     0.000,     0.000,     0.000, 901,    1,  0,     0.000,     0.000,   0
'LIB150_B    150.00','G2',   1,  99, 909,     5.236,     0.913,     0.000,     0.000,     0.000,     0.000, 901,    1,  0,     0.000,     0.000,   0
'LIB150_B    150.00','G3',   1,  99, 909,     0.259,     0.007,     0.000,     0.000,     0.000,     0.000, 901,    1,  0,     0.000,     0.000,   0
'LIB150_B    150.00','G4',   1,  99, 909,     1.667,     0.000,     0.000,     0.000,     0.000,     0.000, 901,    1,  0,     0.000,     0.000,   0
'MAL150_B    150.00','1 ',   1,  99, 904,    21.950,     1.673,     0.000,     0.000,     0.000,     0.000, 901,    1,  0,     0.000,     0.000,   0
'MAL150_B    150.00','2 ',   1,  99, 904,    20.803,     1.673,     0.000,     0.000,     0.000,     0.000, 901,    1,  0,     0.000,     0.000,   0
'MAL150_B    150.00','G1',   1,  99, 904,     0.000,     0.000,     0.000,     0.000,     0.000,     0.000, 901,    1,  0,     0.000,     0.000,   0
'ME5500_B    500.00','ME',   1,  99, 905,     0.120,     2.240,     0.000,     0.000,     0.000,     0.000, 910,    0,  0,     0.000,     0.000,   0
'MEL150_B    150.00','1 ',   1,  99, 905,     1.333,     0.800,     0.000,     0.000,     0.000,     0.000, 901,    1,  0,     0.000,     0.000,   0
'MEL150_B    150.00','2 ',   1,  99, 905,     6.056,     1.127,     0.000,     0.000,     0.000,     0.000, 901,    1,  0,     0.000,     0.000,   0
'MER150_B    150.00','1 ',   1,  99, 909,     5.346,     0.436,     0.000,     0.000,     0.000,     0.000, 901,    1,  0,     0.000,     0.000,   0
'MER150_B    150.00','2 ',   1,  99, 909,     5.429,     0.436,     0.000,     0.000,     0.000,     0.000, 901,    1,  0,     0.000,     0.000,   0
'MER150_B    150.00','G1',   1,  99, 909,     6.636,     0.000,     0.000,     0.000,     0.000,     0.000, 901,    1,  0,     0.000,     0.000,   0
'MVA150_B    150.00','1 ',   1,  99, 903,    17.565,     2.376,     0.000,     0.000,     0.000,     0.000, 901,    1,  0,     0.000,     0.000,   0
'MVA150_B    150.00','2 ',   1,  99, 903,     0.000,     0.000,     0.000,     0.000,     0.000,     0.000, 901,    1,  0,     0.000,     0.000,   0
'MVA150_B    150.00','3 ',   1,  99, 903,     5.976,     1.488,     0.000,     0.000,     0.000,     0.000, 903,    0,  0,     0.000,     0.000,   0
'MVB500_B    500.00','1 ',   1,  99, 902,    12.214,     2.525,     0.000,     0.000,     0.000,     0.000, 901,    1,  0,     0.000,     0.000,   0
'MVB500_B    500.00','2 ',   1,  99, 902,    11.939,     2.525,     0.000,     0.000,     0.000,     0.000, 901,    1,  0,     0.000,     0.000,   0
'MVC150_B    150.00','1 ',   1,  99, 903,     0.000,     0.000,     0.000,     0.000,     0.000,     0.000, 901,    1,  0,     0.000,     0.000,   0
'MVC150_B    150.00','2 ',   1,  99, 903,    36.147,     5.855,     0.000,     0.000,     0.000,     0.000, 901,    1,  0,     0.000,     0.000,   0
'MVC150_B    150.00','3 ',   1,  99, 903,    38.285,    -6.449,     0.000,     0.000,     0.000,     0.000, 901,    1,  0,     0.000,     0.000,   0
'MVE1501B    150.00','7 ',   1,  99, 903,    44.803,     8.146,     0.000,     0.000,     0.000,     0.000, 901,    1,  0,     0.000,     0.000,   0
'MVE1501B    150.00','8 ',   1,  99, 903,    47.179,     8.825,     0.000,     0.000,     0.000,     0.000, 901,    1,  0,     0.000,     0.000,   0
'MVE1501B    150.00','9 ',   1,  99, 903,    47.179,     8.825,     0.000,     0.000,     0.000,     0.000, 901,    1,  0,     0.000,     0.000,   0
'MVF150_B    150.00','1 ',   1,  99, 903,    25.631,     3.936,     0.000,     0.000,     0.000,     0.000, 901,    1,  0,     0.000,     0.000,   0
'MVF150_B    150.00','2 ',   1,  99, 903,    32.005,     2.718,     0.000,     0.000,     0.000,     0.000, 901,    1,  0,     0.000,     0.000,   0
'MVF150_B    150.00','3 ',   1,  99, 903,    22.816,     0.000,     0.000,     0.000,     0.000,     0.000, 901,    1,  0,     0.000,     0.000,   0
'MVF150_B    150.00','4 ',   1,  99, 903,     0.000,     0.000,     0.000,     0.000,     0.000,     0.000, 901,    1,  0,     0.000,     0.000,   0
'MVF150_B    150.00','AC',   1,  99, 903,     0.000,     0.000,     0.000,     0.000,     0.000,     0.000, 901,    1,  0,     0.000,     0.000,   0
'MVG150_B    150.00','1 ',   1,  99, 903,     0.000,     0.000,     0.000,     0.000,     0.000,     0.000, 901,    1,  0,     0.000,     0.000,   0
'MVG150_B    150.00','2 ',   1,  99, 903,    37.928,     0.592,     0.000,     0.000,     0.000,     0.000, 901,    1,  0,     0.000,     0.000,   0
'MVH1501B    150.00','1 ',   1,  99, 903,    29.519,     3.435,     0.000,     0.000,     0.000,     0.000, 901,    1,  0,     0.000,     0.000,   0
'MVH1501B    150.00','2 ',   1,  99, 903,    29.497,     3.435,     0.000,     0.000,     0.000,     0.000, 901,    1,  0,     0.000,     0.000,   0
'MVH1501B    150.00','3 ',   1,  99, 903,    26.174,     3.493,     0.000,     0.000,     0.000,     0.000, 901,    1,  0,     0.000,     0.000,   0
'MVH1501B    150.00','AC',   1,  99, 903,     0.000,     0.000,     0.000,     0.000,     0.000,     0.000, 901,    1,  0,     0.000,     0.000,   0
'MVJ150_B    150.00','1 ',   1,  99, 903,    29.839,     5.493,     0.000,     0.000,     0.000,     0.000, 901,    1,  0,     0.000,     0.000,   0
'MVJ150_B    150.00','2 ',   1,  99, 903,    27.149,     4.691,     0.000,     0.000,     0.000,     0.000, 901,    1,  0,     0.000,     0.000,   0
'MVK150_B    150.00','1 ',   1,  99, 903,    22.783,     1.684,     0.000,     0.000,     0.000,     0.000, 901,    1,  0,     0.000,     0.000,   0
'MVK150_B    150.00','2 ',   1,  99, 903,    21.359,     2.525,     0.000,     0.000,     0.000,     0.000, 901,    1,  0,     0.000,     0.000,   0
'MVM1501X    150.00','1 ',   1,  99, 903,    12.173,     1.515,     0.000,     0.000,     0.000,     0.000, 901,    1,  0,     0.000,     0.000,   0
'MVR1501B    150.00','1 ',   1,  99, 903,    27.270,    -0.068,     0.000,     0.000,     0.000,     0.000, 901,    1,  0,     0.000,     0.000,   0
'MVR1501B    150.00','2 ',   1,  99, 903,    16.935,     0.332,     0.000,     0.000,     0.000,     0.000, 901,    1,  0,     0.000,     0.000,   0
'NOR1501B    150.00','1 ',   1,  99, 903,    39.139,     6.682,     0.000,     0.000,     0.000,     0.000, 901,    1,  0,     0.000,     0.000,   0
'NOR1501B    150.00','2 ',   1,  99, 903,    41.684,     7.637,     0.000,     0.000,     0.000,     0.000, 901,    1,  0,     0.000,     0.000,   0
'NOR1501B    150.00','3 ',   1,  99, 903,     0.000,     0.000,     0.000,     0.000,     0.000,     0.000, 901,    1,  0,     0.000,     0.000,   0
'NPA150_B    150.00','1 ',   1,  99, 909,     8.935,     1.145,     0.000,     0.000,     0.000,     0.000, 901,    1,  0,     0.000,     0.000,   0
'NPA150_B    150.00','2 ',   1,  99, 909,     9.011,     1.183,     0.000,     0.000,     0.000,     0.000, 901,    1,  0,     0.000,     0.000,   0
'PAL500_B    500.00','1 ',   1,  99, 902,     0.000,     0.000,     0.000,     0.000,     0.000,     0.000, 901,    1,  0,     0.000,     0.000,   0
'PAN150_B    150.00','1 ',   1,  99, 903,     0.000,     0.000,     0.000,     0.000,     0.000,     0.000, 901,    1,  0,     0.000,     0.000,   0
'PAN150_B    150.00','2 ',   1,  99, 903,    18.585,     3.151,     0.000,     0.000,     0.000,     0.000, 901,    1,  0,     0.000,     0.000,   0
'PAN150_B    150.00','3 ',   1,  99, 903,    23.735,     5.467,     0.000,     0.000,     0.000,     0.000, 901,    1,  0,     0.000,     0.000,   0
'PAY150_B    150.00','1 ',   1,  99, 908,     5.237,     3.417,     0.000,     0.000,     0.000,     0.000, 901,    1,  0,     0.000,     0.000,   0
'PAY150_B    150.00','2 ',   1,  99, 908,     5.274,     3.452,     0.000,     0.000,     0.000,     0.000, 901,    1,  0,     0.000,     0.000,   0
'PAY150_B    150.00','3 ',   1,  99, 908,     0.000,     0.000,     0.000,     0.000,     0.000,     0.000, 901,    1,  0,     0.000,     0.000,   0
'PAY150_B    150.00','G1',   1,  99, 908,     0.000,     0.000,     0.000,     0.000,     0.000,     0.000, 901,    1,  0,     0.000,     0.000,   0
'PAY150_B    150.00','G2',   1,  99, 908,     5.644,    -1.997,     0.000,     0.000,     0.000,     0.000, 901,    1,  0,     0.000,     0.000,   0
'PAY150_B    150.00','G3',   1,  99, 908,     6.734,     0.000,     0.000,     0.000,     0.000,     0.000, 901,    1,  0,     0.000,     0.000,   0
'PAY150_B    150.00','G4',   1,  99, 908,     7.670,     0.021,     0.000,     0.000,     0.000,     0.000, 901,    1,  0,     0.000,     0.000,   0
'PAY150_B    150.00','G5',   1,  99, 908,     6.415,     0.030,     0.000,     0.000,     0.000,     0.000, 901,    1,  0,     0.000,     0.000,   0
'PAY150_B    150.00','G6',   1,  99, 908,     1.041,     0.270,     0.000,     0.000,     0.000,     0.000, 901,    1,  0,     0.000,     0.000,   0
'PAY150_B    150.00','G7',   1,  99, 908,     0.350,     0.000,     0.000,     0.000,     0.000,     0.000, 901,    1,  0,     0.000,     0.000,   0
'PAY150_B    150.00','TS',   1,  99, 908,     0.317,     0.054,     0.000,     0.000,     0.000,     0.000, 901,    1,  0,     0.000,     0.000,   0
'PAZ1501B    150.00','1 ',   1,  99, 904,     6.449,     0.509,     0.000,     0.000,     0.000,     0.000, 901,    1,  0,     0.000,     0.000,   0
'PAZ1501B    150.00','2 ',   1,  99, 904,     6.619,     0.636,     0.000,     0.000,     0.000,     0.000, 901,    1,  0,     0.000,     0.000,   0
'PES150_B    150.00','1 ',   1,  99, 904,    14.018,    -0.490,     0.000,     0.000,     0.000,     0.000, 901,    1,  0,     0.000,     0.000,   0
'PES150_B    150.00','2 ',   1,  99, 904,    14.073,    -0.490,     0.000,     0.000,     0.000,     0.000, 901,    1,  0,     0.000,     0.000,   0
'PIE150_B    150.00','1 ',   1,  99, 903,     0.000,     0.000,     0.000,     0.000,     0.000,     0.000, 901,    1,  0,     0.000,     0.000,   0
'PIE150_B    150.00','1A',   1,  99, 903,    27.153,     5.770,     0.000,     0.000,     0.000,     0.000, 901,    1,  0,     0.000,     0.000,   0
'PIE150_B    150.00','2 ',   1,  99, 903,    26.917,    10.775,     0.000,     0.000,     0.000,     0.000, 901,    1,  0,     0.000,     0.000,   0
'RIV150_B    150.00','1 ',   1,  99, 907,     7.674,     2.762,     0.000,     0.000,     0.000,     0.000, 901,    1,  0,     0.000,     0.000,   0
'RIV150_B    150.00','2 ',   1,  99, 907,     7.200,     2.581,     0.000,     0.000,     0.000,     0.000, 901,    1,  0,     0.000,     0.000,   0
'RIV150_B    150.00','3 ',   0,  99, 910,     0.000,     0.000,     0.000,     0.000,     0.000,     0.000, 901,    1,  0,     0.000,     0.000,   0
'RIV150_B    150.00','G1',   1,  99, 907,     4.384,     0.000,     0.000,     0.000,     0.000,     0.000, 901,    1,  0,     0.000,     0.000,   0
'RIV150_B    150.00','G2',   1,  99, 907,     2.637,     0.000,     0.000,     0.000,     0.000,     0.000, 901,    1,  0,     0.000,     0.000,   0
'ROC150_B    150.00','1 ',   1,  99, 904,     2.129,    -0.031,     0.000,     0.000,     0.000,     0.000, 901,    1,  0,     0.000,     0.000,   0
'ROC150_B    150.00','2 ',   1,  99, 904,     3.099,     1.238,     0.000,     0.000,     0.000,     0.000, 901,    1,  0,     0.000,     0.000,   0
'ROC150_B    150.00','3 ',   1,  99, 904,     0.000,     0.000,     0.000,     0.000,     0.000,     0.000, 901,    1,  0,     0.000,     0.000,   0
'ROC150_B    150.00','G1',   1,  99, 904,     2.672,    -1.364,     0.000,     0.000,     0.000,     0.000, 901,    1,  0,     0.000,     0.000,   0
'ROC150_B    150.00','G2',   1,  99, 904,     0.969,    -0.657,     0.000,     0.000,     0.000,     0.000, 901,    1,  0,     0.000,     0.000,   0
'ROC150_B    150.00','G3',   1,  99, 904,     0.000,     0.000,     0.000,     0.000,     0.000,     0.000, 901,    1,  0,     0.000,     0.000,   0
'ROD150_B    150.00','1 ',   1,  99, 906,     6.958,     1.527,     0.000,     0.000,     0.000,     0.000, 901,    1,  0,     0.000,     0.000,   0
'ROD150_B    150.00','2 ',   1,  99, 906,     4.089,     0.178,     0.000,     0.000,     0.000,     0.000, 901,    1,  0,     0.000,     0.000,   0
'ROD150_B    150.00','G1',   1,  99, 906,     0.000,     0.000,     0.000,     0.000,     0.000,     0.000, 901,    1,  0,     0.000,     0.000,   0
'ROD150_B    150.00','G2',   1,  99, 906,     6.459,    -0.926,     0.000,     0.000,     0.000,     0.000, 901,    1,  0,     0.000,     0.000,   0
'ROS150_B    150.00','1 ',   1,  99, 909,     7.951,     0.721,     0.000,     0.000,     0.000,     0.000, 901,    1,  0,     0.000,     0.000,   0
'ROS150_B    150.00','2 ',   1,  99, 909,     7.778,     0.721,     0.000,     0.000,     0.000,     0.000, 901,    1,  0,     0.000,     0.000,   0
'ROS150_B    150.00','G1',   1,  99, 909,     5.293,    -1.532,     0.000,     0.000,     0.000,     0.000, 901,    1,  0,     0.000,     0.000,   0