@!IC, SBASE,REV,XFRRAT,NXFRAT,BASFRQ
0,   100.00, 34,     0,     1, 50.00     / PSS(R)E-34.9    TUE, APR 30 2024  17:55
PREVISIÛN M·X MEDIODÌA INV 2020, TOTAL PAÌS  1862 MW
HISTÛRICO  05JUL2019, H1145, DEMANDA 1730 MW
GENERAL, THRSHZ=0.0001, PQBRAK=0.7, BLOWUP=5.0
GAUSS, ITMX=100, ACCP=1.6, ACCQ=1.6, ACCM=1.0, TOL=0.0001
NEWTON, ITMXN=20, ACCN=1.0, TOLN=0.1, VCTOLQ=0.1, VCTOLV=0.00001, DVLIM=0.99, NDVFCT=0.99
ADJUST, ADJTHR=0.005, ACCTAP=1.0, TAPLIM=0.05, SWVBND=100.0, MXTPSS=99, MXSWIM=10
TYSL, ITMXTY=20, ACCTY=1.0, TOLTY=0.00001
SOLVER, FNSL, ACTAPS=0, AREAIN=0, PHSHFT=0, DCTAPS=1, SWSHNT=1, FLATST=0, VARLIM=0, NONDIV=0
RATING, 1, "RATE1 ", "RATING SET 1                    "
RATING, 2, "RATE2 ", "RATING SET 2                    "
RATING, 3, "RATE3 ", "RATING SET 3                    "
RATING, 4, "RATE4 ", "RATING SET 4                    "
RATING, 5, "RATE5 ", "RATING SET 5                    "
RATING, 6, "RATE6 ", "RATING SET 6                    "
RATING, 7, "RATE7 ", "RATING SET 7                    "
RATING, 8, "RATE8 ", "RATING SET 8                    "
RATING, 9, "RATE9 ", "RATING SET 9                    "
RATING,10, "RATE10", "RATING SET 10                   "
RATING,11, "RATE11", "RATING SET 11                   "
RATING,12, "RATE12", "RATING SET 12                   "
0 / END OF SYSTEM-WIDE DATA, BEGIN BUS DATA
@!   I,'NAME        ', BASKV, IDE,AREA,ZONE,OWNER, VM,        VA,    NVHI,   NVLO,   EVHI,   EVLO
   101,'PES150_B    ', 150.0000,1,  99, 904, 901,0.93443,   1.7484,1.10000,0.90000,1.10000,0.90000
  4000,'SGDE.ARG    ', 500.0000,1,   2,   4,  10,0.90001,   0.0000,1.10000,0.90000,1.10000,0.90000
  4004,'C.ELIA      ', 500.0000,1,   2,   4,  10,0.92980,   0.4916,1.10000,0.90000,1.10000,0.90000
 90000,'SU5500_B    ', 500.0000,2,  99, 901, 901,0.90029,   0.1945,1.10000,0.90000,1.10000,0.90000
 90080,'SJ5500_B    ', 500.0000,1,  99, 901, 901,0.93313,   0.5700,1.10000,0.90000,1.10000,0.90000
 90100,'MA5500_B    ', 500.0000,1,  99, 902, 901,0.94764,   0.4017,1.10000,0.90000,1.10000,0.90000
 90160,'BRU500_B    ', 500.0000,2,  99, 902, 901,0.94688,   0.4620,1.10000,0.90000,1.10000,0.90000
 90180,'CR5_500_B   ', 500.0000,1,  99, 902, 901,0.94968,   0.4868,1.10000,0.90000,1.10000,0.90000
 90200,'MVB500_B    ', 500.0000,1,  99, 902, 901,0.94720,   0.4026,1.10000,0.90000,1.10000,0.90000
 90300,'MI5500_B    ', 500.0000,1,  99, 902, 901,0.94812,   0.4396,1.10000,0.90000,1.10000,0.90000
 90480,'ME5500_B    ', 500.0000,1,  99, 902, 901,0.94444,   2.7792,1.10000,0.90000,1.10000,0.90000
 90500,'PAL500_B    ', 500.0000,2,  99, 902, 901,0.94669,   0.8001,1.10000,0.90000,1.10000,0.90000
 90700,'SC5500_B    ', 500.0000,1,  99, 902, 901,0.95103,   1.3488,1.10000,0.90000,1.10000,0.90000
 92000,'SU5150_B    ', 150.0000,1,  99, 901, 901,0.90034,   1.8523,1.10000,0.90000,1.10000,0.90000
 92020,'YOU150_B    ', 150.0000,1,  99, 906, 901,0.94861,   3.8449,1.10000,0.90000,1.10000,0.90000
 92030,'PAY150_B    ', 150.0000,1,  99, 908, 901,0.93604,   3.3119,1.10000,0.90000,1.10000,0.90000
 92040,'SAL150_B    ', 150.0000,2,  99, 908, 901,0.90410,   1.8595,1.10000,0.90000,1.10000,0.90000
 92050,'FBE150_B    ', 150.0000,1,  99, 909, 901,0.94950,   0.9042,1.10000,0.90000,1.10000,0.90000
 92060,'ARA150_B    ', 150.0000,1,  99, 908, 901,0.91018,   4.7750,1.10000,0.90000,1.10000,0.90000
 92061,'CLFAUX150_B ', 150.0000,1,  99, 908, 901,0.90370,   4.3633,1.10000,0.90000,1.10000,0.90000
 92070,'TGO150_B    ', 150.0000,1,  99, 908, 901,0.92566,   6.2927,1.10000,0.90000,1.10000,0.90000
 92080,'SJA150_B    ', 150.0000,1,  99, 901, 901,0.95519,   0.6640,1.10000,0.90000,1.10000,0.90000
 92090,'ART150_B    ', 150.0000,1,  99, 908, 901,0.94531,   8.6445,1.10000,0.90000,1.10000,0.90000
 92091,'JPT_150B    ', 150.0000,2,  99, 908, 901,0.94287,   8.8706,1.10000,0.90000,1.10000,0.90000
 92100,'MVA150_B    ', 150.0000,1,  99, 903, 901,0.94115,   0.0559,1.10000,0.90000,1.10000,0.90000
 92110,'NOR1501B    ', 150.0000,1,  99, 903, 901,0.94008,  -0.0971,1.10000,0.90000,1.10000,0.90000
 92111,'NOR1502B    ', 150.0000,1,  99, 903, 901,0.94178,  -0.5650,1.10000,0.90000,1.10000,0.90000
 92124,'MVL150B2    ', 150.0000,2,  99, 903, 901,0.93889,  -0.1892,1.10000,0.90000,1.10000,0.90000
 92131,'PRO1501X    ', 150.0000,1,  99, 906, 901,0.94158,   0.9516,1.10000,0.90000,1.10000,0.90000
 92132,'PRO1502X    ', 150.0000,1,  99, 906, 901,0.94158,   0.9516,1.10000,0.90000,1.10000,0.90000
 92141,'MVLMVA_X    ', 150.0000,1,  99, 903, 901,0.94003,  -0.0698,1.10000,0.90000,1.10000,0.90000
 92142,'MVLMVB_X    ', 150.0000,1,  99, 903, 901,0.94109,  -0.0639,1.10000,0.90000,1.10000,0.90000
 92180,'MVM1501X    ', 150.0000,1,  99, 903, 901,0.94237,  -0.4678,1.10000,0.90000,1.10000,0.90000
 92200,'MVB150_B    ', 150.0000,1,  99, 903, 901,0.94295,   0.0467,1.10000,0.90000,1.10000,0.90000
 92210,'MVC150_B    ', 150.0000,1,  99, 903, 901,0.94292,  -0.5944,1.10000,0.90000,1.10000,0.90000
 92220,'MVD1501X    ', 150.0000,1,  99, 903, 901,0.94305,  -0.6572,1.10000,0.90000,1.10000,0.90000
 92230,'MVD1502X    ', 150.0000,1,  99, 903, 901,0.94305,  -0.6572,1.10000,0.90000,1.10000,0.90000
 92240,'MVE1501B    ', 150.0000,2,  99, 903, 901,0.94280,  -0.6939,1.10000,0.90000,1.10000,0.90000
 92270,'MVJ150_B    ', 150.0000,1,  99, 903, 901,0.94276,  -0.7149,1.10000,0.90000,1.10000,0.90000
 92280,'PIE150_B    ', 150.0000,1,  99, 903, 901,0.94298,   0.0462,1.10000,0.90000,1.10000,0.90000
 92300,'MVI150_B    ', 150.0000,1,  99, 903, 901,0.94331,  -0.6567,1.10000,0.90000,1.10000,0.90000
 92310,'MVF150_B    ', 150.0000,1,  99, 903, 901,0.94303,  -0.7002,1.10000,0.90000,1.10000,0.90000
 92320,'MVG150_B    ', 150.0000,1,  99, 903, 901,0.94296,  -0.7100,1.10000,0.90000,1.10000,0.90000
 92330,'MVH1501B    ', 150.0000,1,  99, 903, 901,0.94317,  -0.6784,1.10000,0.90000,1.10000,0.90000
 92340,'MVK150_B    ', 150.0000,1,  99, 903, 901,0.94257,  -0.7910,1.10000,0.90000,1.10000,0.90000
 92350,'MVR1501B    ', 150.0000,1,  99, 903, 901,0.94304,  -0.7090,1.10000,0.90000,1.10000,0.90000
 92360,'MVR1502B    ', 150.0000,1,  99, 903, 901,0.94080,  -0.4233,1.10000,0.90000,1.10000,0.90000
 92380,'SOL150_B    ', 150.0000,1,  99, 903, 901,0.94157,  -0.6293,1.10000,0.90000,1.10000,0.90000
 92400,'RIV150_B    ', 150.0000,2,  99, 907, 901,0.95777,   7.5116,1.10000,0.90000,1.10000,0.90000
 92410,'TAC150_B    ', 150.0000,1,  99, 907, 901,0.96105,   7.9838,1.10000,0.90000,1.10000,0.90000
 92411,'PAM150_B    ', 150.0000,2,  99, 907, 901,0.96210,  11.0080,1.10000,0.90000,1.10000,0.90000
 92412,'TAB150_B    ', 150.0000,1,  99, 907, 901,0.96253,   8.3243,1.10000,0.90000,1.10000,0.90000
 92420,'VAL150_B    ', 150.0000,2,  99, 905, 901,0.97766,   5.9911,1.10000,0.90000,1.10000,0.90000
 92430,'TYT150_B    ', 150.0000,1,  99, 905, 901,0.97616,   5.7687,1.10000,0.90000,1.10000,0.90000
 92440,'EMA150_B    ', 150.0000,1,  99, 905, 901,0.97851,   5.6873,1.10000,0.90000,1.10000,0.90000
 92450,'MEL150_B    ', 150.0000,1,  99, 905, 901,0.96576,   5.6246,1.10000,0.90000,1.10000,0.90000
 92460,'MDI150_X    ', 150.0000,1,  99, 907, 901,0.96178,   7.7789,1.10000,0.90000,1.10000,0.90000
 92470,'STE150_B    ', 150.0000,1,  99, 907, 901,0.96191,   7.7678,1.10000,0.90000,1.10000,0.90000
 92480,'MEB150_B    ', 150.0000,1,  99, 902, 901,0.96439,   5.6341,1.10000,0.90000,1.10000,0.90000
 92481,'MEB150P1    ', 150.0000,1,  99, 905, 901,0.96474,   5.7386,1.10000,0.90000,1.10000,0.90000
 92482,'MEB150P2    ', 150.0000,1,  99, 905, 901,0.96496,   5.6316,1.10000,0.90000,1.10000,0.90000
 92485,'LAD150_B    ', 150.0000,2,  99, 902, 904,0.96178,   6.5715,1.10000,0.90000,1.10000,0.90000
 92490,'ARB150_B    ', 150.0000,2,  99, 905, 901,0.96744,   6.4008,1.10000,0.90000,1.10000,0.90000
 92491,'ARB150P1    ', 150.0000,1,  99, 905, 901,0.96777,   6.3840,1.10000,0.90000,1.10000,0.90000
 92492,'ARB150P2    ', 150.0000,1,  99, 905, 901,0.96732,   6.3480,1.10000,0.90000,1.10000,0.90000
 92500,'PAL150_B    ', 150.0000,1,  99, 906, 901,0.90000,   3.1451,1.10000,0.90000,1.10000,0.90000
 92510,'PIA150_B    ', 150.0000,1,  99, 906, 901,0.94941,   6.7349,1.10000,0.90000,1.10000,0.90000
 92520,'FLO150_B    ', 150.0000,1,  99, 906, 901,0.94281,   5.5722,1.10000,0.90000,1.10000,0.90000
 92524,'POL150_B    ', 150.0000,2,  99, 906, 904,0.94206,   5.8292,1.10000,0.90000,1.10000,0.90000
 92531,'DUR1501F    ', 150.0000,1,  99, 906, 901,0.95701,   6.6613,1.10000,0.90000,1.10000,0.90000
 92532,'DUR1502F    ', 150.0000,1,  99, 906, 901,0.96053,   7.1266,1.10000,0.90000,1.10000,0.90000
 92540,'BON150_B    ', 150.0000,2,  99, 906, 901,0.96883,   7.6584,1.10000,0.90000,1.10000,0.90000
 92550,'BAY150_B    ', 150.0000,2,  99, 906, 901,0.95303,   6.2761,1.10000,0.90000,1.10000,0.90000
 92561,'PBE150RX    ', 150.0000,1,  99, 906, 901,0.94374,   0.9860,1.10000,0.90000,1.10000,0.90000
 92562,'PBE150BX    ', 150.0000,1,  99, 906, 901,0.94271,   0.6353,1.10000,0.90000,1.10000,0.90000
 92580,'ROD150_B    ', 150.0000,1,  99, 906, 901,0.94855,   1.9258,1.10000,0.90000,1.10000,0.90000
 92590,'TRI150_B    ', 150.0000,2,  99, 906, 901,0.96445,   6.3274,1.10000,0.90000,1.10000,0.90000
 92600,'COL150_B    ', 150.0000,1,  99, 909, 901,0.94397,   1.0882,1.10000,0.90000,1.10000,0.90000
 92610,'ROS150_B    ', 150.0000,1,  99, 909, 901,0.94550,   1.8995,1.10000,0.90000,1.10000,0.90000
 92611,'MEN150_B    ', 150.0000,2,  99, 909, 904,0.94323,   2.1186,1.10000,0.90000,1.10000,0.90000
 92620,'LIB150_B    ', 150.0000,1,  99, 909, 901,0.93855,  -0.9235,1.10000,0.90000,1.10000,0.90000
 92630,'SVA150_B    ', 150.0000,1,  99, 909, 901,0.94088,  -0.7392,1.10000,0.90000,1.10000,0.90000
 92640,'MER150_B    ', 150.0000,1,  99, 909, 901,0.94676,   1.2205,1.10000,0.90000,1.10000,0.90000
 92650,'NPA150_B    ', 150.0000,1,  99, 909, 901,0.94288,   0.6001,1.10000,0.90000,1.10000,0.90000
 92660,'FBEMER_X    ', 150.0000,1,  99, 909, 901,0.94863,   1.0171,1.10000,0.90000,1.10000,0.90000
 92661,'FBESJA_X    ', 150.0000,1,  99, 909, 901,0.95072,   0.8623,1.10000,0.90000,1.10000,0.90000
 92670,'ACO150_B    ', 150.0000,1,  99, 906, 901,0.94257,   0.7661,1.10000,0.90000,1.10000,0.90000
 92681,'EFI150_X    ', 150.0000,1,  99, 909, 901,0.94005,  -0.7963,1.10000,0.90000,1.10000,0.90000
 92690,'CON150_B    ', 150.0000,1,  99, 909, 901,0.94434,   0.8260,1.10000,0.90000,1.10000,0.90000
 92692,'COE1502P    ', 150.0000,1,  99, 909, 901,0.94458,   0.8798,1.10000,0.90000,1.10000,0.90000
 92700,'SCA150_B    ', 150.0000,2,  99, 904, 901,0.93454,   2.5184,1.10000,0.90000,1.10000,0.90000
 92710,'BIF150_B    ', 150.0000,2,  99, 904, 901,0.93741,   0.7210,1.10000,0.90000,1.10000,0.90000
 92721,'PAZ1501B    ', 150.0000,1,  99, 904, 901,0.93537,   1.5741,1.10000,0.90000,1.10000,0.90000
 92722,'PAZ1502B    ', 150.0000,1,  99, 904, 901,0.93675,   1.2438,1.10000,0.90000,1.10000,0.90000
 92730,'MAL150_B    ', 150.0000,1,  99, 904, 901,0.93455,   1.8005,1.10000,0.90000,1.10000,0.90000
 92740,'CGR150_B    ', 150.0000,1,  99, 904, 901,0.93446,   1.7548,1.10000,0.90000,1.10000,0.90000
 92760,'ROC150_B    ', 150.0000,2,  99, 904, 901,0.94601,   7.1183,1.10000,0.90000,1.10000,0.90000
 92770,'PAN150_B    ', 150.0000,1,  99, 903, 901,0.94145,   0.0497,1.10000,0.90000,1.10000,0.90000
 92771,'PAN150_F    ', 150.0000,1,  99, 903, 901,0.94006,   0.3076,1.10000,0.90000,1.10000,0.90000
 92780,'PAZSCA_X    ', 150.0000,1,  99, 904, 901,0.93550,   2.2798,1.10000,0.90000,1.10000,0.90000
 92790,'BOB150_B    ', 150.0000,2,  99, 906, 901,0.96909,   7.6724,1.10000,0.90000,1.10000,0.90000
 92791,'SCAROC_X    ', 150.0000,1,  99, 904, 901,0.93526,   2.9987,1.10000,0.90000,1.10000,0.90000
 92801,'SCAMAL1X    ', 150.0000,1,  99, 904, 901,0.93464,   2.2728,1.10000,0.90000,1.10000,0.90000
 92810,'SCAMAL2X    ', 150.0000,1,  99, 904, 901,0.93474,   2.2587,1.10000,0.90000,1.10000,0.90000
 92830,'PAZMAL_X    ', 150.0000,1,  99, 904, 901,0.93557,   1.5790,1.10000,0.90000,1.10000,0.90000
 92910,'PIB150_B    ', 150.0000,2,  99, 906, 901,0.94938,   7.4649,1.10000,0.90000,1.10000,0.90000
 92940,'DOL150_B    ', 150.0000,1,  99, 906, 901,0.94490,   0.8141,1.10000,0.90000,1.10000,0.90000
0 / END OF BUS DATA, BEGIN LOAD DATA
@!   I,'ID',STAT,AREA,ZONE,      PL,        QL,        IP,        IQ,        YP,        YQ, OWNER,SCALE,INTRPT,  DGENP,     DGENQ, DGENF
   101,'1 ',   1,  99, 904,    15.859,    -0.554,     0.000,     0.000,     0.000,     0.000, 901,    1,  0,     0.000,     0.000,   0
  4000,'1 ',   1,   2,   4,     0.000,     0.000,     0.000,     0.000,     0.000,     0.000,  10,    1,  0,     0.000,     0.000,   0
 90200,'1 ',   1,  99, 902,    13.818,     2.857,     0.000,     0.000,     0.000,     0.000, 901,    1,  0,     0.000,     0.000,   0
 90480,'1 ',   1,  99, 902,     0.000,     0.000,     0.000,     0.000,     0.000,     0.000, 901,    1,  0,     0.000,     0.000,   0
 92020,'1 ',   1,  99, 906,     7.821,     0.000,     0.000,     0.000,     0.000,     0.000, 901,    1,  0,     0.000,     0.000,   0
 92030,'1 ',   1,  99, 908,     5.924,     3.865,     0.000,     0.000,     0.000,     0.000, 901,    1,  0,     0.000,     0.000,   0
 92040,'1 ',   1,  99, 908,    10.327,     1.068,     0.000,     0.000,     0.000,     0.000, 901,    1,  0,     0.000,     0.000,   0
 92050,'1 ',   1,  99, 909,     5.443,     0.681,     0.000,     0.000,     0.000,     0.000, 901,    1,  0,     0.000,     0.000,   0
 92060,'1 ',   1,  99, 908,     8.705,     0.000,     0.000,     0.000,     0.000,     0.000, 901,    1,  0,     0.000,     0.000,   0
 92070,'1 ',   1,  99, 908,     4.153,    -1.657,     0.000,     0.000,     0.000,     0.000, 901,    1,  0,     0.000,     0.000,   0
 92090,'1 ',   1,  99, 908,     4.663,    -0.960,     0.000,     0.000,     0.000,     0.000, 901,    1,  0,     0.000,     0.000,   0
 92100,'1 ',   1,  99, 903,    19.871,     2.688,     0.000,     0.000,     0.000,     0.000, 901,    1,  0,     0.000,     0.000,   0
 92110,'1 ',   1,  99, 903,    44.278,     7.560,     0.000,     0.000,     0.000,     0.000, 901,    1,  0,     0.000,     0.000,   0
 92124,'1 ',   1,  99, 903,     0.000,     0.000,     0.000,     0.000,     0.000,     0.000, 901,    1,  0,     0.000,     0.000,   0
 92180,'1 ',   1,  99, 903,    13.771,     1.714,     0.000,     0.000,     0.000,     0.000, 901,    1,  0,     0.000,     0.000,   0
 92210,'1 ',   1,  99, 903,     0.000,     0.000,     0.000,     0.000,     0.000,     0.000, 901,    1,  0,     0.000,     0.000,   0
 92240,'7 ',   1,  99, 903,    50.686,     9.215,     0.000,     0.000,     0.000,     0.000, 901,    1,  0,     0.000,     0.000,   0
 92270,'1 ',   1,  99, 903,    33.758,     6.215,     0.000,     0.000,     0.000,     0.000, 901,    1,  0,     0.000,     0.000,   0
 92280,'1 ',   1,  99, 903,     0.000,     0.000,     0.000,     0.000,     0.000,     0.000, 901,    1,  0,     0.000,     0.000,   0
 92310,'1 ',   1,  99, 903,    28.997,     4.453,     0.000,     0.000,     0.000,     0.000, 901,    1,  0,     0.000,     0.000,   0
 92320,'1 ',   1,  99, 903,     0.000,     0.000,     0.000,     0.000,     0.000,     0.000, 901,    1,  0,     0.000,     0.000,   0
 92330,'1 ',   1,  99, 903,    33.396,     3.886,     0.000,     0.000,     0.000,     0.000, 901,    1,  0,     0.000,     0.000,   0
 92340,'1 ',   1,  99, 903,    25.775,     1.905,     0.000,     0.000,     0.000,     0.000, 901,    1,  0,     0.000,     0.000,   0
 92350,'1 ',   1,  99, 903,    30.851,    -0.077,     0.000,     0.000,     0.000,     0.000, 901,    1,  0,     0.000,     0.000,   0
 92380,'1 ',   1,  99, 903,    10.944,     0.768,     0.000,     0.000,     0.000,     0.000, 901,    1,  0,     0.000,     0.000,   0
 92400,'1 ',   1,  99, 907,     8.681,     3.125,     0.000,     0.000,     0.000,     0.000, 901,    1,  0,     0.000,     0.000,   0
 92410,'1 ',   1,  99, 907,    19.299,     2.220,     0.000,     0.000,     0.000,     0.000, 901,    1,  0,     0.000,     0.000,   0
 92420,'1 ',   1,  99, 905,     5.131,    -0.185,     0.000,     0.000,     0.000,     0.000, 901,    1,  0,     0.000,     0.000,   0
 92430,'1 ',   1,  99, 905,     5.476,    -0.542,     0.000,     0.000,     0.000,     0.000, 901,    1,  0,     0.000,     0.000,   0
 92440,'1 ',   1,  99, 905,     0.000,     0.000,     0.000,     0.000,     0.000,     0.000, 901,    1,  0,     0.000,     0.000,   0
 92450,'1 ',   1,  99, 905,     1.509,     0.905,     0.000,     0.000,     0.000,     0.000, 901,    1,  0,     0.000,     0.000,   0
 92470,'1 ',   1,  99, 907,     0.184,    -0.008,     0.000,     0.000,     0.000,     0.000, 903,    0,  0,     0.000,     0.000,   0
 92500,'1 ',   1,  99, 906,     0.000,     0.000,     0.000,     0.000,     0.000,     0.000, 901,    1,  0,     0.000,     0.000,   0
 92520,'1 ',   1,  99, 906,    17.836,     2.652,     0.000,     0.000,     0.000,     0.000, 901,    1,  0,     0.000,     0.000,   0
 92531,'1 ',   1,  99, 906,    11.572,     1.942,     0.000,     0.000,     0.000,     0.000, 901,    1,  0,     0.000,     0.000,   0
 92540,'1 ',   1,  99, 906,     4.781,     0.000,     0.000,     0.000,     0.000,     0.000, 901,    1,  0,     0.000,     0.000,   0
 92580,'1 ',   1,  99, 906,     7.872,     1.728,     0.000,     0.000,     0.000,     0.000, 901,    1,  0,     0.000,     0.000,   0
 92590,'1 ',   1,  99, 906,     3.327,     0.000,     0.000,     0.000,     0.000,     0.000, 901,    1,  0,     0.000,     0.000,   0
 92600,'1 ',   1,  99, 909,    11.136,     1.920,     0.000,     0.000,     0.000,     0.000, 901,    1,  0,     0.000,     0.000,   0
 92610,'1 ',   1,  99, 909,     8.995,     0.816,     0.000,     0.000,     0.000,     0.000, 901,    1,  0,     0.000,     0.000,   0
 92620,'G1',   1,  99, 909,    15.946,     0.000,     0.000,     0.000,     0.000,     0.000, 901,    1,  0,     0.000,     0.000,   0
 92630,'1 ',   1,  99, 909,    13.545,     2.190,     0.000,     0.000,     0.000,     0.000, 901,    1,  0,     0.000,     0.000,   0
 92640,'1 ',   1,  99, 909,     6.048,     0.494,     0.000,     0.000,     0.000,     0.000, 901,    1,  0,     0.000,     0.000,   0
 92650,'1 ',   1,  99, 909,    10.109,     1.296,     0.000,     0.000,     0.000,     0.000, 901,    1,  0,     0.000,     0.000,   0
 92670,'1 ',   1,  99, 906,    16.148,     7.872,     0.000,     0.000,     0.000,     0.000, 903,    0,  0,     0.000,     0.000,   0
 92681,'1 ',   1,  99, 909,     6.548,     2.823,     0.000,     0.000,     0.000,     0.000, 901,    1,  0,     0.000,     0.000,   0
 92690,'1 ',   1,  99, 909,     0.872,     0.352,     0.000,     0.000,     0.000,     0.000, 901,    1,  0,     0.000,     0.000,   0
 92700,'1 ',   1,  99, 904,     7.477,    -0.443,     0.000,     0.000,     0.000,     0.000, 901,    1,  0,     0.000,     0.000,   0
 92710,'1 ',   1,  99, 904,     9.109,     3.428,     0.000,     0.000,     0.000,     0.000, 901,    1,  0,     0.000,     0.000,   0
 92721,'1 ',   1,  99, 904,     7.296,     0.576,     0.000,     0.000,     0.000,     0.000, 901,    1,  0,     0.000,     0.000,   0
 92730,'1 ',   1,  99, 904,    24.833,     1.893,     0.000,     0.000,     0.000,     0.000, 901,    1,  0,     0.000,     0.000,   0
 92760,'1 ',   1,  99, 904,     2.409,    -0.035,     0.000,     0.000,     0.000,     0.000, 901,    1,  0,     0.000,     0.000,   0
 92770,'1 ',   1,  99, 903,     0.000,     0.000,     0.000,     0.000,     0.000,     0.000, 901,    1,  0,     0.000,     0.000,   0
 92790,'1 ',   1,  99, 906,     0.000,     0.000,     0.000,     0.000,     0.000,     0.000, 901,    1,  0,     0.000,     0.000,   0
 92940,'1 ',   1,  99, 906,     3.657,     0.000,     0.000,     0.000,     0.000,     0.000, 901,    1,  0,     0.000,     0.000,   0
0 / END OF LOAD DATA, BEGIN FIXED SHUNT DATA
@!   I,'ID',STATUS,  GL,        BL
 90100,'1 ',1,     0.000,     3.308
 90160,'1 ',1,     0.000,     1.860
 90200,'1 ',1,     0.000,     2.352
 90300,'1 ',1,     0.000,     2.666
 90500,'1 ',1,     0.000,     5.561
 90700,'1 ',1,     0.000,     1.732
0 / END OF FIXED SHUNT DATA, BEGIN GENERATOR DATA
@!   I,'ID',      PG,        QG,        QT,        QB,     VS,    IREG,     MBASE,     ZR,         ZX,         RT,         XT,     GTAP,STAT, RMPCT,      PT,        PB,    O1,    F1,  O2,    F2,  O3,    F3,  O4,    F4,WMOD, WPF,NREG
 90000,'1 ',    80.000,   -29.000,   560.000,  -350.000,0.85849,  4000,   150.000, 0.00000E+0, 2.28000E-1, 0.00000E+0, 0.00000E+0,1.00000,1,   53.8,   945.000,     0.000, 901,1.0000
 90160,'1 ',     0.000,   -25.100,   182.100,  -182.100,0.92295, 90160,    63.500, 1.58000E-3, 2.11000E-1, 0.00000E+0, 0.00000E+0,1.00000,1,  100.0,   903.600,     0.000, 901,1.0000
 90500,'1 ',    30.000,    47.884,    48.000,   -30.000,0.90347, 90500,   111.000, 4.30000E-3, 2.10000E-1, 0.00000E+0, 0.00000E+0,1.00000,1,  100.0,   333.000,     0.000, 901,1.0000
 92000,'EN',    -0.370,   -33.374,     0.000,     0.000,1.00000, 92000,   100.000, 0.00000E+0, 1.00000E+0, 0.00000E+0, 0.00000E+0,1.00000,1,  100.0,    50.000,     0.000, 901,1.0000
 92020,'1 ',     0.000,     0.000,     0.000,     0.000,1.00000, 92020,   100.000, 0.00000E+0, 1.00000E+0, 0.00000E+0, 0.00000E+0,1.00000,1,  100.0,    29.500,     0.000, 901,1.0000
 92030,'1 ',     0.000,     0.000,     0.000,     0.000,1.00000, 92030,   100.000, 0.00000E+0, 1.00000E+0, 0.00000E+0, 0.00000E+0,1.00000,1,  100.0,    43.000,     0.000, 901,1.0000
 92040,'G1',    45.696,     0.000,     0.000,     0.000,0.87335, 92040,    50.000, 9.49400E-3, 2.12808E-1, 0.00000E+0, 0.00000E+0,1.00000,1,  100.0,    76.000,     0.000, 906,1.0000
 92050,'1 ',     0.000,     0.000,    10.000,   -10.000,1.00000, 92050,   100.000, 0.00000E+0, 1.00000E+0, 0.00000E+0, 0.00000E+0,1.00000,1,  100.0,    40.000,     0.000, 901,1.0000
 92060,'1 ',     0.000,     0.000,     0.000,     0.000,1.00000, 92060,   100.000, 0.00000E+0, 1.00000E+0, 0.00000E+0, 0.00000E+0,1.00000,1,  100.0,    10.000,     0.000, 901,1.0000
 92061,'1 ',     0.000,     0.000,    21.000,   -21.000,1.00000, 92061,   100.000, 0.00000E+0, 1.00000E+0, 0.00000E+0, 0.00000E+0,1.00000,1,  100.0,    70.000,     0.000, 901,1.0000
 92070,'1 ',     0.000,     0.000,     0.000,     0.000,1.00000, 92070,   100.000, 0.00000E+0, 1.00000E+0, 0.00000E+0, 0.00000E+0,1.00000,1,  100.0,    25.000,     0.000, 901,1.0000
 92091,'G1',    38.561,   -11.723,    20.160,   -20.160,0.94515, 92091,    68.000, 9.49400E-3, 2.12808E-1, 0.00000E+0, 0.00000E+0,1.00000,1,  100.0,    70.000,     0.000, 904,1.0000
 92124,'1 ',    -1.121,   -39.277,    80.000,   -80.000,0.92366, 92124,   142.750, 1.10000E-3, 1.47300E-1, 0.00000E+0, 0.00000E+0,1.00000,1,  100.0,   212.000,     0.000, 901,1.0000
 92240,'1 ',     0.000,     0.000,     8.000,    -8.000,0.92562, 92240,    13.137, 0.00000E+0, 2.59000E-1, 0.00000E+0, 0.00000E+0,1.00000,1,  100.0,    80.000,     0.000, 901,1.0000
 92400,'2 ',     5.158,     0.000,     6.000,    -5.000,0.95787, 92400,    15.000, 0.00000E+0, 2.10000E-1, 0.00000E+0, 0.00000E+0,1.00000,1,  100.0,    20.000,     0.000, 905,1.0000
 92410,'1 ',     0.000,     0.000,     3.000,    -3.000,1.00000, 92410,   100.000, 0.00000E+0, 1.00000E+0, 0.00000E+0, 0.00000E+0,1.00000,1,  100.0,    15.000,     0.000, 901,1.0000
 92411,'G1',    77.121,   -32.410,    42.480,   -42.480,0.96111, 92411,   140.000, 9.49400E-3, 2.12808E-1, 0.00000E+0, 0.00000E+0,1.00000,1,  100.0,   140.000,     0.000, 904,1.0000
 92420,'1 ',    70.000,   -48.191,    23.000,   -23.000,0.96786, 92420,   100.000, 0.00000E+0, 1.00000E+0, 0.00000E+0, 0.00000E+0,1.00000,1,  100.0,    73.600,     0.000, 901,1.0000
 92430,'1 ',     0.000,     0.000,     3.000,    -3.000,1.00000, 92430,   100.000, 0.00000E+0, 1.00000E+0, 0.00000E+0, 0.00000E+0,1.00000,1,  100.0,    14.000,     0.000, 901,1.0000
 92440,'1 ',     0.000,     0.000,     2.000,    -2.000,1.00000, 92440,   100.000, 0.00000E+0, 1.00000E+0, 0.00000E+0, 0.00000E+0,1.00000,1,  100.0,    10.000,     0.000, 901,1.0000
 92485,'G1',    27.543,   -12.344,    16.375,   -16.375,0.96217, 92485,    50.000, 9.49400E-3, 2.12808E-1, 0.00000E+0, 0.00000E+0,1.00000,1,  100.0,    50.000,     0.000, 904,1.0000
 92490,'G1',    27.543,   -12.248,    15.000,   -15.000,0.96664, 92490,    50.000, 9.49400E-3, 2.12808E-1, 0.00000E+0, 0.00000E+0,1.00000,1,  100.0,    50.000,     0.000, 904,1.0000
 92524,'1 ',    27.543,   -12.215,    30.000,   -30.000,0.94136, 92524,    50.000, 9.49400E-3, 2.12808E-1, 0.00000E+0, 0.00000E+0,1.00000,1,  100.0,   100.000,     0.000, 904,1.0000
 92540,'1 ',     0.000,     0.000,    52.000,   -48.000,0.94946, 92540,    40.000, 4.30000E-3, 2.12000E-1, 0.00000E+0, 0.00000E+0,1.00000,1,  100.0,   152.000,     0.000, 901,1.0000
 92550,'1 ',     0.000,    -0.150,    18.000,   -18.000,0.92340, 92550,    36.000, 4.40000E-3, 2.22000E-1, 0.00000E+0, 0.00000E+0,1.00000,1,  100.0,   108.000,     0.000, 901,1.0000
 92580,'1 ',     0.000,     0.000,     2.000,    -2.000,1.00000, 92580,   100.000, 0.00000E+0, 1.00000E+0, 0.00000E+0, 0.00000E+0,1.00000,1,  100.0,    20.000,     0.000, 901,1.0000
 92590,'1 ',    27.543,     4.061,    62.000,   -62.000,0.92033, 92590,    50.000, 9.49400E-3, 2.12808E-1, 0.00000E+0, 0.00000E+0,1.00000,1,  100.0,   219.000,     0.000, 904,1.0000
 92600,'1 ',     0.000,     0.000,    20.000,   -20.000,1.00000, 92600,   100.000, 0.00000E+0, 1.00000E+0, 0.00000E+0, 0.00000E+0,1.00000,1,  100.0,    80.000,     0.000, 901,1.0000
 92610,'1 ',     0.000,     0.000,     2.000,    -2.000,1.00000, 92610,   100.000, 0.00000E+0, 1.00000E+0, 0.00000E+0, 0.00000E+0,1.00000,1,  100.0,    18.000,     0.000, 901,1.0000
 92611,'G1',    35.861,   -19.385,    19.530,   -19.530,0.92888, 92611,    70.000, 9.49400E-3, 2.12808E-1, 0.00000E+0, 0.00000E+0,1.00000,1,  100.0,    65.100,     0.000, 904,1.0000
 92620,'1 ',     0.000,     0.000,     5.000,    -5.000,1.00000, 92620,   100.000, 0.00000E+0, 1.00000E+0, 0.00000E+0, 0.00000E+0,1.00000,1,  100.0,    27.200,     0.000, 901,1.0000
 92640,'1 ',     0.000,     0.000,     0.000,     0.000,1.00000, 92640,   100.000, 0.00000E+0, 1.00000E+0, 0.00000E+0, 0.00000E+0,1.00000,1,  100.0,     9.500,     0.000, 901,1.0000
 92700,'1 ',    27.543,   -12.650,    42.000,   -42.000,0.93133, 92700,    50.000, 9.49400E-3, 2.12808E-1, 0.00000E+0, 0.00000E+0,1.00000,1,  100.0,   120.000,     0.000, 904,1.0000
 92710,'G1',    42.000,    12.600,    12.600,   -12.600,0.92591, 92710,    42.000, 9.49400E-3, 2.12808E-1, 0.00000E+0, 0.00000E+0,1.00000,1,  100.0,    57.000,     0.000, 904,1.0000
 92760,'1 ',    27.543,    -4.307,    30.000,   -30.000,0.94723, 92760,    50.000, 9.49400E-3, 2.12808E-1, 0.00000E+0, 0.00000E+0,1.00000,1,  100.0,   108.000,     0.000, 904,1.0000
 92790,'1 ',    27.543,     0.888,    45.000,   -45.000,0.94957, 92790,    50.000, 9.49400E-3, 2.12808E-1, 0.00000E+0, 0.00000E+0,1.00000,1,  100.0,   150.000,     0.000, 904,1.0000
 92910,'1 ',     9.916,     0.000,    15.000,   -15.000,0.94874, 92910,    18.000, 9.49400E-3, 2.12808E-1, 0.00000E+0, 0.00000E+0,1.00000,1,  100.0,    88.000,     0.000, 904,1.0000
0 / END OF GENERATOR DATA, BEGIN BRANCH DATA
@!   I,     J,'CKT',     R,          X,         B,                    'N A M E'                 ,   RATE1,   RATE2,   RATE3,   RATE4,   RATE5,   RATE6,   RATE7,   RATE8,   RATE9,  RATE10,  RATE11,  RATE12,    GI,       BI,       GJ,       BJ,STAT,MET,  LEN,  O1,  F1,    O2,  F2,    O3,  F3,    O4,  F4
   101, 92740,'1 ', 6.64733E-04, 1.09200E-03,   0.03444,'                                        ',  112.00,  124.00, 9999.00,    0.00,    0.00,    0.00,    0.00,    0.00,    0.00,    0.00,    0.00,    0.00,  0.00000,  0.00000,  0.00000,  0.00000,1,1,   1.95, 901,1.0000
   101, 92740,'2 ', 6.64733E-04, 1.09200E-03,   0.03444,'                                        ',  112.00,  124.00, 9999.00,    0.00,    0.00,    0.00,    0.00,    0.00,    0.00,    0.00,    0.00,    0.00,  0.00000,  0.00000,  0.00000,  0.00000,1,1,   1.95, 901,1.0000
  4000,  4004,'1 ', 1.85000E-03, 1.72700E-02,   1.70530,'                                        ', 1039.00, 1039.00,    0.00,    0.00,    0.00,    0.00,    0.00,    0.00,    0.00,    0.00,    0.00,    0.00,  0.00000, -0.50000,  0.00000, -0.50000,1,1,   0.00,   1,1.0000
  4000, 90000,'1 ', 4.00000E-05, 4.10000E-04,   0.03890,'                                        ', 1039.00, 1039.00,    0.00,    0.00,    0.00,    0.00,    0.00,    0.00,    0.00,    0.00,    0.00,    0.00,  0.00000,  0.00000,  0.00000,  0.00000,1,2,   3.70,   1,1.0000
  4004, 90080,'1 ', 2.80000E-04, 2.59000E-03,   0.24680,'                                        ', 1039.00, 1039.00,    0.00,    0.00,    0.00,    0.00,    0.00,    0.00,    0.00,    0.00,    0.00,    0.00,  0.00000,  0.00000,  0.00000,  0.00000,1,1,  23.50,   1,1.0000
 90000, 90080,'1 ', 1.71000E-03, 1.60600E-02,   1.52925,'                                        ', 1039.00, 1039.00,    0.00,    0.00,    0.00,    0.00,    0.00,    0.00,    0.00,    0.00,    0.00,    0.00,  0.00197, -0.49020,  0.00188, -0.48847,1,1, 145.64, 901,1.0000
 90080, 90500,'1 ', 9.14684E-04, 8.56565E-03,   0.81585,'                                        ', 1877.00, 2078.00,    0.00,    0.00,    0.00,    0.00,    0.00,    0.00,    0.00,    0.00,    0.00,    0.00,  0.00197, -0.49020,  0.00000,  0.00000,1,1,  77.70, 901,1.0000
 90080, 90500,'2 ', 9.44114E-04, 8.84125E-03,   0.84210,'                                        ', 1039.23, 1039.23,    0.00,    0.00,    0.00,    0.00,    0.00,    0.00,    0.00,    0.00,    0.00,    0.00,  0.00188, -0.48847,  0.00000,  0.00000,1,1,  80.20, 901,1.0000
 90100, 90180,'1 ', 6.10000E-04, 6.16800E-03,   0.60848,'                                        ', 1396.00,    0.00,    0.00,    0.00,    0.00,    0.00,    0.00,    0.00,    0.00,    0.00,    0.00,    0.00,  0.00000,  0.00000,  0.00082, -0.35004,1,2,  57.10, 901,1.0000