@!IC, SBASE,REV,XFRRAT,NXFRAT,BASFRQ
0,   100.00, 34,     0,     1, 50.00     / PSS(R)E-34.9    FRI, APR 26 2024  18:06
PREVISIÛN M·X MEDIODÌA INV 2020, TOTAL PAÌS  1862 MW
HISTÛRICO  05JUL2019, H1145, DEMANDA 1730 MW
GENERAL, THRSHZ=0.0001, PQBRAK=0.7, BLOWUP=5.0
GAUSS, ITMX=100, ACCP=1.6, ACCQ=1.6, ACCM=1.0, TOL=0.0001
NEWTON, ITMXN=20, ACCN=1.0, TOLN=0.1, VCTOLQ=0.1, VCTOLV=0.00001, DVLIM=0.99, NDVFCT=0.99
ADJUST, ADJTHR=0.005, ACCTAP=1.0, TAPLIM=0.05, SWVBND=100.0, MXTPSS=99, MXSWIM=10
TYSL, ITMXTY=20, ACCTY=1.0, TOLTY=0.00001
SOLVER, FNSL, ACTAPS=0, AREAIN=0, PHSHFT=0, DCTAPS=1, SWSHNT=1, FLATST=0, VARLIM=0, NONDIV=0
RATING, 1, "RATE1 ", "RATING SET 1                    "
RATING, 2, "RATE2 ", "RATING SET 2                    "
RATING, 3, "RATE3 ", "RATING SET 3                    "
RATING, 4, "RATE4 ", "RATING SET 4                    "
RATING, 5, "RATE5 ", "RATING SET 5                    "
RATING, 6, "RATE6 ", "RATING SET 6                    "
RATING, 7, "RATE7 ", "RATING SET 7                    "
RATING, 8, "RATE8 ", "RATING SET 8                    "
RATING, 9, "RATE9 ", "RATING SET 9                    "
RATING,10, "RATE10", "RATING SET 10                   "
RATING,11, "RATE11", "RATING SET 11                   "
RATING,12, "RATE12", "RATING SET 12                   "
0 / END OF SYSTEM-WIDE DATA, BEGIN BUS DATA
@!   I,'NAME        ', BASKV, IDE,AREA,ZONE,OWNER, VM,        VA,    NVHI,   NVLO,   EVHI,   EVLO
   101,'PES150_B    ', 150.0000,1,  99, 904, 901,0.93648,   1.7592,1.10000,0.90000,1.10000,0.90000
  4000,'SGDE.ARG    ', 500.0000,3,   2,   4,  10,0.90456,   0.0000,1.10000,0.90000,1.10000,0.90000
  4004,'C.ELIA      ', 500.0000,1,   2,   4,  10,0.93129,   0.5096,1.10000,0.90000,1.10000,0.90000
 90000,'SU5500_B    ', 500.0000,2,  99, 901, 901,0.90489,   0.1923,1.10000,0.90000,1.10000,0.90000
 90080,'SJ5500_B    ', 500.0000,1,  99, 901, 901,0.93416,   0.5910,1.10000,0.90000,1.10000,0.90000
 90100,'MA5500_B    ', 500.0000,1,  99, 902, 901,0.94919,   0.4211,1.10000,0.90000,1.10000,0.90000
 90160,'BRU500_B    ', 500.0000,2,  99, 902, 901,0.94830,   0.4818,1.10000,0.90000,1.10000,0.90000
 90180,'CR5_500_B   ', 500.0000,1,  99, 902, 901,0.95067,   0.5094,1.10000,0.90000,1.10000,0.90000
 90200,'MVB500_B    ', 500.0000,1,  99, 902, 901,0.94873,   0.4220,1.10000,0.90000,1.10000,0.90000
 90300,'MI5500_B    ', 500.0000,1,  99, 902, 901,0.94982,   0.4582,1.10000,0.90000,1.10000,0.90000
 90480,'ME5500_B    ', 500.0000,1,  99, 902, 901,0.94827,   2.7785,1.10000,0.90000,1.10000,0.90000
 90500,'PAL500_B    ', 500.0000,2,  99, 902, 901,0.94598,   0.8328,1.10000,0.90000,1.10000,0.90000
 90700,'SC5500_B    ', 500.0000,1,  99, 902, 901,0.95332,   1.3616,1.10000,0.90000,1.10000,0.90000
 92000,'SU5150_B    ', 150.0000,1,  99, 901, 901,0.90488,   1.8309,1.10000,0.90000,1.10000,0.90000
 92020,'YOU150_B    ', 150.0000,1,  99, 906, 901,0.95019,   3.8482,1.10000,0.90000,1.10000,0.90000
 92030,'PAY150_B    ', 150.0000,1,  99, 908, 901,0.93826,   3.3015,1.10000,0.90000,1.10000,0.90000
 92040,'SAL150_B    ', 150.0000,2,  99, 908, 901,0.90839,   1.8403,1.10000,0.90000,1.10000,0.90000
 92050,'FBE150_B    ', 150.0000,1,  99, 909, 901,0.95126,   0.9172,1.10000,0.90000,1.10000,0.90000
 92060,'ARA150_B    ', 150.0000,1,  99, 908, 901,0.91427,   4.7328,1.10000,0.90000,1.10000,0.90000
 92061,'CLFAUX150_B ', 150.0000,2,  99, 908, 901,0.90870,   4.3064,1.10000,0.90000,1.10000,0.90000
 92070,'TGO150_B    ', 150.0000,1,  99, 908, 901,0.92773,   6.2813,1.10000,0.90000,1.10000,0.90000
 92080,'SJA150_B    ', 150.0000,1,  99, 901, 901,0.95654,   0.6845,1.10000,0.90000,1.10000,0.90000
 92090,'ART150_B    ', 150.0000,1,  99, 908, 901,0.94469,   8.6834,1.10000,0.90000,1.10000,0.90000
 92091,'JPT_150B    ', 150.0000,2,  99, 908, 901,0.94218,   8.9110,1.10000,0.90000,1.10000,0.90000
 92100,'MVA150_B    ', 150.0000,1,  99, 903, 901,0.94318,   0.0756,1.10000,0.90000,1.10000,0.90000
 92110,'NOR1501B    ', 150.0000,1,  99, 903, 901,0.94212,  -0.0767,1.10000,0.90000,1.10000,0.90000
 92111,'NOR1502B    ', 150.0000,1,  99, 903, 901,0.94411,  -0.5439,1.10000,0.90000,1.10000,0.90000
 92124,'MVL150B2    ', 150.0000,2,  99, 903, 901,0.94141,  -0.1732,1.10000,0.90000,1.10000,0.90000
 92131,'PRO1501X    ', 150.0000,1,  99, 906, 901,0.94348,   0.9701,1.10000,0.90000,1.10000,0.90000
 92132,'PRO1502X    ', 150.0000,1,  99, 906, 901,0.94348,   0.9701,1.10000,0.90000,1.10000,0.90000
 92141,'MVLMVA_X    ', 150.0000,1,  99, 903, 901,0.94231,  -0.0518,1.10000,0.90000,1.10000,0.90000
 92142,'MVLMVB_X    ', 150.0000,1,  99, 903, 901,0.94339,  -0.0460,1.10000,0.90000,1.10000,0.90000
 92180,'MVM1501X    ', 150.0000,1,  99, 903, 901,0.94453,  -0.4458,1.10000,0.90000,1.10000,0.90000
 92200,'MVB150_B    ', 150.0000,1,  99, 903, 901,0.94505,   0.0659,1.10000,0.90000,1.10000,0.90000
 92210,'MVC150_B    ', 150.0000,1,  99, 903, 901,0.94516,  -0.5723,1.10000,0.90000,1.10000,0.90000
 92220,'MVD1501X    ', 150.0000,1,  99, 903, 901,0.94531,  -0.6348,1.10000,0.90000,1.10000,0.90000
 92230,'MVD1502X    ', 150.0000,1,  99, 903, 901,0.94531,  -0.6348,1.10000,0.90000,1.10000,0.90000
 92240,'MVE1501B    ', 150.0000,2,  99, 903, 901,0.94507,  -0.6714,1.10000,0.90000,1.10000,0.90000
 92270,'MVJ150_B    ', 150.0000,1,  99, 903, 901,0.94502,  -0.6923,1.10000,0.90000,1.10000,0.90000
 92280,'PIE150_B    ', 150.0000,1,  99, 903, 901,0.94508,   0.0654,1.10000,0.90000,1.10000,0.90000
 92300,'MVI150_B    ', 150.0000,1,  99, 903, 901,0.94554,  -0.6339,1.10000,0.90000,1.10000,0.90000
 92310,'MVF150_B    ', 150.0000,1,  99, 903, 901,0.94527,  -0.6774,1.10000,0.90000,1.10000,0.90000
 92320,'MVG150_B    ', 150.0000,1,  99, 903, 901,0.94521,  -0.6872,1.10000,0.90000,1.10000,0.90000
 92330,'MVH1501B    ', 150.0000,1,  99, 903, 901,0.94541,  -0.6555,1.10000,0.90000,1.10000,0.90000
 92340,'MVK150_B    ', 150.0000,1,  99, 903, 901,0.94480,  -0.7675,1.10000,0.90000,1.10000,0.90000
 92350,'MVR1501B    ', 150.0000,1,  99, 903, 901,0.94529,  -0.6862,1.10000,0.90000,1.10000,0.90000
 92360,'MVR1502B    ', 150.0000,1,  99, 903, 901,0.94321,  -0.4041,1.10000,0.90000,1.10000,0.90000
 92380,'SOL150_B    ', 150.0000,1,  99, 903, 901,0.94373,  -0.6066,1.10000,0.90000,1.10000,0.90000
 92400,'RIV150_B    ', 150.0000,2,  99, 907, 901,0.95783,   7.5372,1.10000,0.90000,1.10000,0.90000
 92410,'TAC150_B    ', 150.0000,1,  99, 907, 901,0.96158,   7.9997,1.10000,0.90000,1.10000,0.90000
 92411,'PAM150_B    ', 150.0000,2,  99, 907, 901,0.96334,  11.0078,1.10000,0.90000,1.10000,0.90000
 92412,'TAB150_B    ', 150.0000,1,  99, 907, 901,0.96312,   8.3388,1.10000,0.90000,1.10000,0.90000
 92420,'VAL150_B    ', 150.0000,2,  99, 905, 901,0.97758,   6.0076,1.10000,0.90000,1.10000,0.90000
 92430,'TYT150_B    ', 150.0000,1,  99, 905, 901,0.97599,   5.7794,1.10000,0.90000,1.10000,0.90000
 92440,'EMA150_B    ', 150.0000,1,  99, 905, 901,0.97833,   5.6980,1.10000,0.90000,1.10000,0.90000
 92450,'MEL150_B    ', 150.0000,1,  99, 905, 901,0.96518,   5.6364,1.10000,0.90000,1.10000,0.90000
 92460,'MDI150_X    ', 150.0000,1,  99, 907, 901,0.96215,   7.7982,1.10000,0.90000,1.10000,0.90000
 92470,'STE150_B    ', 150.0000,1,  99, 907, 901,0.96228,   7.7871,1.10000,0.90000,1.10000,0.90000
 92480,'MEB150_B    ', 150.0000,1,  99, 902, 901,0.96377,   5.6460,1.10000,0.90000,1.10000,0.90000
 92481,'MEB150P1    ', 150.0000,1,  99, 905, 901,0.96421,   5.7496,1.10000,0.90000,1.10000,0.90000
 92482,'MEB150P2    ', 150.0000,1,  99, 905, 901,0.96435,   5.6435,1.10000,0.90000,1.10000,0.90000
 92485,'LAD150_B    ', 150.0000,2,  99, 902, 904,0.96171,   6.5761,1.10000,0.90000,1.10000,0.90000
 92490,'ARB150_B    ', 150.0000,2,  99, 905, 901,0.96745,   6.4032,1.10000,0.90000,1.10000,0.90000
 92491,'ARB150P1    ', 150.0000,1,  99, 905, 901,0.96778,   6.3867,1.10000,0.90000,1.10000,0.90000
 92492,'ARB150P2    ', 150.0000,1,  99, 905, 901,0.96728,   6.3509,1.10000,0.90000,1.10000,0.90000
 92500,'PAL150_B    ', 150.0000,1,  99, 906, 901,0.90018,   3.1774,1.10000,0.90000,1.10000,0.90000
 92510,'PIA150_B    ', 150.0000,1,  99, 906, 901,0.95032,   6.7524,1.10000,0.90000,1.10000,0.90000
 92520,'FLO150_B    ', 150.0000,1,  99, 906, 901,0.94402,   5.5872,1.10000,0.90000,1.10000,0.90000
 92524,'POL150_B    ', 150.0000,2,  99, 906, 904,0.94327,   5.8436,1.10000,0.90000,1.10000,0.90000
 92531,'DUR1501F    ', 150.0000,1,  99, 906, 901,0.95757,   6.6849,1.10000,0.90000,1.10000,0.90000
 92532,'DUR1502F    ', 150.0000,1,  99, 906, 901,0.96109,   7.1497,1.10000,0.90000,1.10000,0.90000
 92540,'BON150_B    ', 150.0000,2,  99, 906, 901,0.96896,   7.6884,1.10000,0.90000,1.10000,0.90000
 92550,'BAY150_B    ', 150.0000,2,  99, 906, 901,0.95371,   6.2945,1.10000,0.90000,1.10000,0.90000
 92561,'PBE150RX    ', 150.0000,1,  99, 906, 901,0.94615,   0.9945,1.10000,0.90000,1.10000,0.90000
 92562,'PBE150BX    ', 150.0000,1,  99, 906, 901,0.94502,   0.6474,1.10000,0.90000,1.10000,0.90000
 92580,'ROD150_B    ', 150.0000,1,  99, 906, 901,0.95114,   1.9253,1.10000,0.90000,1.10000,0.90000
 92590,'TRI150_B    ', 150.0000,2,  99, 906, 901,0.96707,   6.3039,1.10000,0.90000,1.10000,0.90000
 92600,'COL150_B    ', 150.0000,1,  99, 909, 901,0.94704,   1.0760,1.10000,0.90000,1.10000,0.90000
 92610,'ROS150_B    ', 150.0000,1,  99, 909, 901,0.94861,   1.8861,1.10000,0.90000,1.10000,0.90000
 92611,'MEN150_B    ', 150.0000,2,  99, 909, 904,0.94663,   2.0965,1.10000,0.90000,1.10000,0.90000
 92620,'LIB150_B    ', 150.0000,1,  99, 909, 901,0.94100,  -0.9052,1.10000,0.90000,1.10000,0.90000
 92630,'SVA150_B    ', 150.0000,1,  99, 909, 901,0.94316,  -0.7174,1.10000,0.90000,1.10000,0.90000
 92640,'MER150_B    ', 150.0000,1,  99, 909, 901,0.94867,   1.2298,1.10000,0.90000,1.10000,0.90000
 92650,'NPA150_B    ', 150.0000,1,  99, 909, 901,0.94541,   0.5998,1.10000,0.90000,1.10000,0.90000
 92660,'FBEMER_X    ', 150.0000,1,  99, 909, 901,0.95045,   1.0287,1.10000,0.90000,1.10000,0.90000
 92661,'FBESJA_X    ', 150.0000,1,  99, 909, 901,0.95243,   0.8763,1.10000,0.90000,1.10000,0.90000
 92670,'ACO150_B    ', 150.0000,1,  99, 906, 901,0.94493,   0.7766,1.10000,0.90000,1.10000,0.90000
 92681,'EFI150_X    ', 150.0000,1,  99, 909, 901,0.94236,  -0.7749,1.10000,0.90000,1.10000,0.90000
 92690,'CON150_B    ', 150.0000,1,  99, 909, 901,0.94715,   0.8177,1.10000,0.90000,1.10000,0.90000
 92692,'COE1502P    ', 150.0000,1,  99, 909, 901,0.94744,   0.8699,1.10000,0.90000,1.10000,0.90000
 92700,'SCA150_B    ', 150.0000,2,  99, 904, 901,0.93658,   2.5260,1.10000,0.90000,1.10000,0.90000
 92710,'BIF150_B    ', 150.0000,2,  99, 904, 901,0.93947,   0.7369,1.10000,0.90000,1.10000,0.90000
 92721,'PAZ1501B    ', 150.0000,1,  99, 904, 901,0.93742,   1.5859,1.10000,0.90000,1.10000,0.90000
 92722,'PAZ1502B    ', 150.0000,1,  99, 904, 901,0.93881,   1.2571,1.10000,0.90000,1.10000,0.90000
 92730,'MAL150_B    ', 150.0000,1,  99, 904, 901,0.93661,   1.8111,1.10000,0.90000,1.10000,0.90000
 92740,'CGR150_B    ', 150.0000,1,  99, 904, 901,0.93652,   1.7656,1.10000,0.90000,1.10000,0.90000
 92760,'ROC150_B    ', 150.0000,2,  99, 904, 901,0.94605,   7.1546,1.10000,0.90000,1.10000,0.90000
 92770,'PAN150_B    ', 150.0000,1,  99, 903, 901,0.94349,   0.0695,1.10000,0.90000,1.10000,0.90000
 92771,'PAN150_F    ', 150.0000,1,  99, 903, 901,0.94211,   0.3258,1.10000,0.90000,1.10000,0.90000
 92780,'PAZSCA_X    ', 150.0000,1,  99, 904, 901,0.93755,   2.2885,1.10000,0.90000,1.10000,0.90000
 92790,'BOB150_B    ', 150.0000,2,  99, 906, 901,0.96921,   7.7028,1.10000,0.90000,1.10000,0.90000
 92791,'SCAROC_X    ', 150.0000,1,  99, 904, 901,0.93709,   3.0076,1.10000,0.90000,1.10000,0.90000
 92801,'SCAMAL1X    ', 150.0000,1,  99, 904, 901,0.93669,   2.2815,1.10000,0.90000,1.10000,0.90000
 92810,'SCAMAL2X    ', 150.0000,1,  99, 904, 901,0.93679,   2.2674,1.10000,0.90000,1.10000,0.90000
 92830,'PAZMAL_X    ', 150.0000,1,  99, 904, 901,0.93762,   1.5907,1.10000,0.90000,1.10000,0.90000
 92910,'PIB150_B    ', 150.0000,2,  99, 906, 901,0.95021,   7.4821,1.10000,0.90000,1.10000,0.90000
 92940,'DOL150_B    ', 150.0000,1,  99, 906, 901,0.94712,   0.8189,1.10000,0.90000,1.10000,0.90000
0 / END OF BUS DATA, BEGIN LOAD DATA
@!   I,'ID',STAT,AREA,ZONE,      PL,        QL,        IP,        IQ,        YP,        YQ, OWNER,SCALE,INTRPT,  DGENP,     DGENQ, DGENF
   101,'1 ',   1,  99, 904,    15.859,    -0.554,     0.000,     0.000,     0.000,     0.000, 901,    1,  0,     0.000,     0.000,   0
 90200,'1 ',   1,  99, 902,    13.818,     2.857,     0.000,     0.000,     0.000,     0.000, 901,    1,  0,     0.000,     0.000,   0
 90500,'1 ',   1,  99, 902,     0.000,     0.000,     0.000,     0.000,     0.000,     0.000, 901,    1,  0,     0.000,     0.000,   0
 92020,'1 ',   1,  99, 906,     7.821,     0.000,     0.000,     0.000,     0.000,     0.000, 901,    1,  0,     0.000,     0.000,   0
 92030,'1 ',   1,  99, 908,     5.924,     3.865,     0.000,     0.000,     0.000,     0.000, 901,    1,  0,     0.000,     0.000,   0
 92040,'1 ',   1,  99, 908,    10.327,     1.068,     0.000,     0.000,     0.000,     0.000, 901,    1,  0,     0.000,     0.000,   0
 92050,'1 ',   1,  99, 909,     5.443,     0.681,     0.000,     0.000,     0.000,     0.000, 901,    1,  0,     0.000,     0.000,   0
 92060,'1 ',   1,  99, 908,     8.705,     0.000,     0.000,     0.000,     0.000,     0.000, 901,    1,  0,     0.000,     0.000,   0
 92070,'1 ',   1,  99, 908,     4.153,    -1.657,     0.000,     0.000,     0.000,     0.000, 901,    1,  0,     0.000,     0.000,   0
 92090,'1 ',   1,  99, 908,     4.663,    -0.960,     0.000,     0.000,     0.000,     0.000, 901,    1,  0,     0.000,     0.000,   0
 92100,'1 ',   1,  99, 903,    19.871,     2.688,     0.000,     0.000,     0.000,     0.000, 901,    1,  0,     0.000,     0.000,   0
 92110,'1 ',   1,  99, 903,    44.278,     7.560,     0.000,     0.000,     0.000,     0.000, 901,    1,  0,     0.000,     0.000,   0
 92180,'1 ',   1,  99, 903,    13.771,     1.714,     0.000,     0.000,     0.000,     0.000, 901,    1,  0,     0.000,     0.000,   0
 92210,'1 ',   1,  99, 903,     0.000,     0.000,     0.000,     0.000,     0.000,     0.000, 901,    1,  0,     0.000,     0.000,   0
 92240,'7 ',   1,  99, 903,    50.686,     9.215,     0.000,     0.000,     0.000,     0.000, 901,    1,  0,     0.000,     0.000,   0
 92270,'1 ',   1,  99, 903,    33.758,     6.215,     0.000,     0.000,     0.000,     0.000, 901,    1,  0,     0.000,     0.000,   0
 92280,'1 ',   1,  99, 903,     0.000,     0.000,     0.000,     0.000,     0.000,     0.000, 901,    1,  0,     0.000,     0.000,   0
 92310,'1 ',   1,  99, 903,    28.997,     4.453,     0.000,     0.000,     0.000,     0.000, 901,    1,  0,     0.000,     0.000,   0
 92320,'1 ',   1,  99, 903,     0.000,     0.000,     0.000,     0.000,     0.000,     0.000, 901,    1,  0,     0.000,     0.000,   0
 92330,'1 ',   1,  99, 903,    33.396,     3.886,     0.000,     0.000,     0.000,     0.000, 901,    1,  0,     0.000,     0.000,   0
 92340,'1 ',   1,  99, 903,    25.775,     1.905,     0.000,     0.000,     0.000,     0.000, 901,    1,  0,     0.000,     0.000,   0
 92350,'1 ',   1,  99, 903,    30.851,    -0.077,     0.000,     0.000,     0.000,     0.000, 901,    1,  0,     0.000,     0.000,   0
 92380,'1 ',   1,  99, 903,    10.944,     0.768,     0.000,     0.000,     0.000,     0.000, 901,    1,  0,     0.000,     0.000,   0
 92400,'1 ',   1,  99, 907,     8.681,     3.125,     0.000,     0.000,     0.000,     0.000, 901,    1,  0,     0.000,     0.000,   0
 92410,'1 ',   1,  99, 907,    19.299,     2.220,     0.000,     0.000,     0.000,     0.000, 901,    1,  0,     0.000,     0.000,   0
 92420,'1 ',   1,  99, 905,     5.131,    -0.185,     0.000,     0.000,     0.000,     0.000, 901,    1,  0,     0.000,     0.000,   0
 92430,'1 ',   1,  99, 905,     5.476,    -0.542,     0.000,     0.000,     0.000,     0.000, 901,    1,  0,     0.000,     0.000,   0
 92440,'1 ',   1,  99, 905,     0.000,     0.000,     0.000,     0.000,     0.000,     0.000, 901,    1,  0,     0.000,     0.000,   0
 92450,'1 ',   1,  99, 905,     1.509,     0.905,     0.000,     0.000,     0.000,     0.000, 901,    1,  0,     0.000,     0.000,   0
 92470,'1 ',   1,  99, 907,     0.184,    -0.008,     0.000,     0.000,     0.000,     0.000, 903,    0,  0,     0.000,     0.000,   0
 92520,'1 ',   1,  99, 906,    17.836,     2.652,     0.000,     0.000,     0.000,     0.000, 901,    1,  0,     0.000,     0.000,   0
 92531,'1 ',   1,  99, 906,    11.572,     1.942,     0.000,     0.000,     0.000,     0.000, 901,    1,  0,     0.000,     0.000,   0
 92540,'1 ',   1,  99, 906,     4.781,     0.000,     0.000,     0.000,     0.000,     0.000, 901,    1,  0,     0.000,     0.000,   0
 92580,'1 ',   1,  99, 906,     7.872,     1.728,     0.000,     0.000,     0.000,     0.000, 901,    1,  0,     0.000,     0.000,   0
 92590,'1 ',   1,  99, 906,     3.327,     0.000,     0.000,     0.000,     0.000,     0.000, 901,    1,  0,     0.000,     0.000,   0
 92600,'1 ',   1,  99, 909,    11.136,     1.920,     0.000,     0.000,     0.000,     0.000, 901,    1,  0,     0.000,     0.000,   0
 92610,'1 ',   1,  99, 909,     8.995,     0.816,     0.000,     0.000,     0.000,     0.000, 901,    1,  0,     0.000,     0.000,   0
 92620,'G1',   1,  99, 909,    15.946,     0.000,     0.000,     0.000,     0.000,     0.000, 901,    1,  0,     0.000,     0.000,   0
 92630,'1 ',   1,  99, 909,    13.545,     2.190,     0.000,     0.000,     0.000,     0.000, 901,    1,  0,     0.000,     0.000,   0
 92640,'1 ',   1,  99, 909,     6.048,     0.494,     0.000,     0.000,     0.000,     0.000, 901,    1,  0,     0.000,     0.000,   0
 92650,'1 ',   1,  99, 909,    10.109,     1.296,     0.000,     0.000,     0.000,     0.000, 901,    1,  0,     0.000,     0.000,   0
 92670,'1 ',   1,  99, 906,    16.148,     7.872,     0.000,     0.000,     0.000,     0.000, 903,    0,  0,     0.000,     0.000,   0
 92681,'1 ',   1,  99, 909,     6.548,     2.823,     0.000,     0.000,     0.000,     0.000, 901,    1,  0,     0.000,     0.000,   0
 92690,'1 ',   1,  99, 909,     0.872,     0.352,     0.000,     0.000,     0.000,     0.000, 901,    1,  0,     0.000,     0.000,   0
 92700,'1 ',   1,  99, 904,     7.477,    -0.443,     0.000,     0.000,     0.000,     0.000, 901,    1,  0,     0.000,     0.000,   0
 92710,'1 ',   1,  99, 904,     9.109,     3.428,     0.000,     0.000,     0.000,     0.000, 901,    1,  0,     0.000,     0.000,   0
 92721,'1 ',   1,  99, 904,     7.296,     0.576,     0.000,     0.000,     0.000,     0.000, 901,    1,  0,     0.000,     0.000,   0
 92730,'1 ',   1,  99, 904,    24.833,     1.893,     0.000,     0.000,     0.000,     0.000, 901,    1,  0,     0.000,     0.000,   0
 92760,'1 ',   1,  99, 904,     2.409,    -0.035,     0.000,     0.000,     0.000,     0.000, 901,    1,  0,     0.000,     0.000,   0
 92770,'1 ',   1,  99, 903,     0.000,     0.000,     0.000,     0.000,     0.000,     0.000, 901,    1,  0,     0.000,     0.000,   0
 92940,'1 ',   1,  99, 906,     3.657,     0.000,     0.000,     0.000,     0.000,     0.000, 901,    1,  0,     0.000,     0.000,   0
0 / END OF LOAD DATA, BEGIN FIXED SHUNT DATA
@!   I,'ID',STATUS,  GL,        BL
 90100,'1 ',1,     0.000,     3.308
 90160,'1 ',1,     0.000,     1.860
 90200,'1 ',1,     0.000,     2.352
 90300,'1 ',1,     0.000,     2.666
 90500,'1 ',1,     0.000,     5.561
 90700,'1 ',1,     0.000,     1.732
0 / END OF FIXED SHUNT DATA, BEGIN GENERATOR DATA
@!   I,'ID',      PG,        QG,        QT,        QB,     VS,    IREG,     MBASE,     ZR,         ZX,         RT,         XT,     GTAP,STAT, RMPCT,      PT,        PB,    O1,    F1,  O2,    F2,  O3,    F3,  O4,    F4,WMOD, WPF,NREG
  4000,'1 ',  -581.267,   -24.513,    80.000,   -50.100,0.85849,  4000,   150.000, 0.00000E+0, 2.28000E-1, 0.00000E+0, 0.00000E+0,1.00000,1,  100.0,   135.000,    50.000,   6,1.0000
  4000,'2 ',   -22.600,   -24.421,    80.000,   -50.000,0.85849,  4000,   150.000, 0.00000E+0, 2.28000E-1, 0.00000E+0, 0.00000E+0,1.00000,1,  100.0,   135.000,    50.000,   6,1.0000
  4000,'3 ',   -22.600,   -24.421,    80.000,   -50.000,0.85849,  4000,   150.000, 0.00000E+0, 2.28000E-1, 0.00000E+0, 0.00000E+0,1.00000,1,  100.0,   135.000,    50.000,   6,1.0000
  4000,'4 ',   -25.475,   -24.421,    80.000,   -50.000,0.85849,  4000,   150.000, 0.00000E+0, 2.28000E-1, 0.00000E+0, 0.00000E+0,1.00000,1,  100.0,   135.000,    50.000,   6,1.0000
  4000,'5 ',   -25.475,   -24.421,    80.000,   -50.000,0.85849,  4000,   150.000, 0.00000E+0, 2.28000E-1, 0.00000E+0, 0.00000E+0,1.00000,1,  100.0,   135.000,    50.000,   6,1.0000
  4000,'6 ',   -25.475,   -24.421,    80.000,   -50.000,0.85849,  4000,   150.000, 0.00000E+0, 2.28000E-1, 0.00000E+0, 0.00000E+0,1.00000,1,  100.0,   135.000,    50.000,   6,1.0000
  4000,'7 ',   -25.475,   -24.421,    80.000,   -50.000,0.85849,  4000,   150.000, 0.00000E+0, 2.28000E-1, 0.00000E+0, 0.00000E+0,1.00000,1,  100.0,   135.000,    50.000,   6,1.0000
 90000,'1 ',    80.000,   -24.602,    80.000,   -50.000,0.85849,  4000,   150.000, 0.00000E+0, 2.28000E-1, 0.00000E+0, 0.00000E+0,1.00000,1,   50.2,   135.000,    50.000, 901,1.0000
 90000,'2 ',    80.000,   -24.602,    80.000,   -50.000,0.85849,  4000,   150.000, 0.00000E+0, 2.28000E-1, 0.00000E+0, 0.00000E+0,1.00000,1,   50.2,   135.000,    50.000, 901,1.0000
 90000,'3 ',    80.000,   -24.602,    80.000,   -50.000,0.85849,  4000,   150.000, 0.00000E+0, 2.28000E-1, 0.00000E+0, 0.00000E+0,1.00000,1,   50.2,   135.000,    50.000, 901,1.0000
 90000,'4 ',    80.000,   -24.602,    80.000,   -50.000,0.85849,  4000,   150.000, 0.00000E+0, 2.28000E-1, 0.00000E+0, 0.00000E+0,1.00000,1,   50.2,   135.000,    50.000, 901,1.0000
 90000,'5 ',    80.000,   -24.602,    80.000,   -50.000,0.85849,  4000,   150.000, 0.00000E+0, 2.28000E-1, 0.00000E+0, 0.00000E+0,1.00000,1,   50.2,   135.000,    50.000, 901,1.0000
 90000,'6 ',    80.000,   -24.602,    80.000,   -50.000,0.85849,  4000,   150.000, 0.00000E+0, 2.28000E-1, 0.00000E+0, 0.00000E+0,1.00000,1,   50.2,   135.000,    50.000, 901,1.0000
 90000,'7 ',    80.000,   -24.602,    80.000,   -50.000,0.85849,  4000,   150.000, 0.00000E+0, 2.28000E-1, 0.00000E+0, 0.00000E+0,1.00000,1,   50.2,   135.000,    50.000, 901,1.0000
 90160,'1 ',     0.000,   -25.100,     8.000,    -5.000,0.92295, 90160,    63.500, 1.58000E-3, 2.11000E-1, 0.00000E+0, 0.00000E+0,1.00000,0,  100.0,    62.000,     0.000, 901,1.0000
 90160,'2 ',     0.000,   -25.000,     8.000,    -5.000,0.92295, 90160,    63.500, 1.58000E-3, 2.11000E-1, 0.00000E+0, 0.00000E+0,1.00000,0,  100.0,    62.000,     0.000, 901,1.0000
 90160,'3 ',     0.000,   -25.150,     8.000,    -5.000,0.92295, 90160,    63.500, 1.58000E-3, 2.11000E-1, 0.00000E+0, 0.00000E+0,1.00000,0,  100.0,    62.000,     0.000, 901,1.0000
 90160,'4 ',    -0.038,   -25.100,     8.000,    -5.000,0.92295, 90160,    63.500, 1.58000E-3, 2.11000E-1, 0.00000E+0, 0.00000E+0,1.00000,0,  100.0,    62.000,     0.000, 901,1.0000
 90160,'5 ',     0.000,   -25.050,     8.000,    -5.000,0.92295, 90160,    63.500, 1.58000E-3, 2.11000E-1, 0.00000E+0, 0.00000E+0,1.00000,0,  100.0,    62.000,     0.000, 901,1.0000
 90160,'6 ',     0.000,   -24.900,     8.000,    -5.000,0.92295, 90160,    63.500, 1.58000E-3, 2.11000E-1, 0.00000E+0, 0.00000E+0,1.00000,0,  100.0,    62.000,     0.000, 901,1.0000
 90160,'7 ',     0.000,   -10.763,    14.750,   -14.750,0.92295, 90160,    28.000, 2.34000E-2, 1.79000E-1, 0.00000E+0, 0.00000E+0,1.00000,1,  100.0,    28.000,     0.000, 901,1.0000
 90160,'8 ',     0.000,   -10.763,    14.750,   -14.750,0.92295, 90160,    28.000, 2.34000E-2, 1.79000E-1, 0.00000E+0, 0.00000E+0,1.00000,1,  100.0,    28.000,     0.000, 901,1.0000
 90160,'G1',     0.000,     0.000,    30.000,   -30.000,0.92295, 90160,   259.500, 1.10000E-3, 1.47300E-1, 0.00000E+0, 0.00000E+0,1.00000,0,  100.0,   173.000,     0.000, 901,1.0000
 90160,'G2',     0.000,     0.000,    30.000,   -30.000,0.92295, 90160,   259.500, 1.10000E-3, 1.47300E-1, 0.00000E+0, 0.00000E+0,1.00000,0,  100.0,   173.000,     0.000, 901,1.0000
 90160,'KI',    26.786,   -10.607,    14.580,   -14.580,0.92295, 90160,    50.000, 9.49400E-3, 2.12808E-1, 0.00000E+0, 0.00000E+0,1.00000,1,  100.0,    48.625,     0.000, 904,1.0000
 90160,'V ',     0.000,     0.000,    30.000,   -30.000,0.92295, 90160,   225.000, 5.80000E-3, 1.32000E-1, 0.00000E+0, 0.00000E+0,1.00000,0,  100.0,   185.000,     0.000, 901,1.0000
 90500,'1 ',    30.000,    28.770,    48.000,   -30.000,0.90347, 90500,   111.000, 4.30000E-3, 2.10000E-1, 0.00000E+0, 0.00000E+0,1.00000,1,  100.0,   111.000,    30.000, 901,1.0000
 90500,'2 ',    30.000,    28.770,    48.000,   -30.000,0.90347, 90500,   111.000, 4.30000E-3, 2.10000E-1, 0.00000E+0, 0.00000E+0,1.00000,1,  100.0,   111.000,    30.000, 901,1.0000
 90500,'3 ',    30.000,    28.770,    48.000,   -30.000,0.90347, 90500,   111.000, 4.30000E-3, 2.10000E-1, 0.00000E+0, 0.00000E+0,1.00000,1,  100.0,   111.000,    30.000, 901,1.0000
 92000,'AS',     0.000,   -33.374,     0.000,     0.000,1.00000, 92000,   100.000, 0.00000E+0, 1.00000E+0, 0.00000E+0, 0.00000E+0,1.00000,0,  100.0,  9999.000, -9999.000,   1,1.0000
 92000,'EN',    -0.370,   -33.374,     0.000,     0.000,1.00000, 92000,   100.000, 0.00000E+0, 1.00000E+0, 0.00000E+0, 0.00000E+0,1.00000,1,  100.0,    50.000,     0.000, 901,1.0000
 92040,'G1',    45.696,     0.000,     0.000,     0.000,0.87335, 92040,    50.000, 9.49400E-3, 2.12808E-1, 0.00000E+0, 0.00000E+0,1.00000,0,  100.0,    50.000,     3.825, 906,1.0000
 92061,'1 ',    38.561,   -18.538,    21.000,   -21.000,0.88702, 92061,    70.000, 9.49400E-3, 2.12808E-1, 0.00000E+0, 0.00000E+0,1.00000,1,  100.0,    70.000,     0.000, 904,1.0000
 92091,'G1',    38.561,   -13.791,    20.160,   -20.160,0.94515, 92091,    68.000, 9.49400E-3, 2.12808E-1, 0.00000E+0, 0.00000E+0,1.00000,1,  100.0,    70.000,     0.000, 904,1.0000
 92124,'1 ',    -1.121,   -36.342,    40.000,   -40.000,0.92366, 92124,   142.750, 1.10000E-3, 1.47300E-1, 0.00000E+0, 0.00000E+0,1.00000,1,  100.0,   114.000,     0.000, 901,1.0000
 92124,'2 ',    -1.199,   -36.342,    40.000,   -40.000,0.92366, 92124,   142.750, 1.10000E-3, 1.47300E-1, 0.00000E+0, 0.00000E+0,1.00000,1,  100.0,   114.000,     0.000, 901,1.0000
 92240,'1 ',     0.000,     0.000,     1.000,    -1.000,0.92562, 92240,    13.137, 0.00000E+0, 2.59000E-1, 0.00000E+0, 0.00000E+0,1.00000,0,  100.0,    13.137,     0.000, 901,1.0000
 92240,'2 ',     0.000,     0.000,     1.000,    -1.000,0.92562, 92240,    13.137, 0.00000E+0, 2.59000E-1, 0.00000E+0, 0.00000E+0,1.00000,0,  100.0,    13.137,     0.000, 901,1.0000
 92240,'3 ',     0.000,     0.000,     1.000,    -1.000,0.92562, 92240,    13.137, 0.00000E+0, 2.59000E-1, 0.00000E+0, 0.00000E+0,1.00000,0,  100.0,    13.137,     0.000, 901,1.0000
 92240,'4 ',     0.000,     0.000,     1.000,    -1.000,0.92562, 92240,    13.137, 0.00000E+0, 2.59000E-1, 0.00000E+0, 0.00000E+0,1.00000,0,  100.0,    13.137,     0.000, 901,1.0000
 92240,'5 ',     0.000,     0.000,     1.000,    -1.000,0.92562, 92240,    13.137, 0.00000E+0, 2.59000E-1, 0.00000E+0, 0.00000E+0,1.00000,0,  100.0,    13.137,     0.000, 901,1.0000
 92240,'6 ',     0.000,     0.000,     1.000,    -1.000,0.92562, 92240,    13.137, 0.00000E+0, 2.59000E-1, 0.00000E+0, 0.00000E+0,1.00000,0,  100.0,    13.137,     0.000, 901,1.0000
 92240,'7 ',     0.000,     0.000,     1.000,    -1.000,0.92562, 92240,    13.137, 0.00000E+0, 2.59000E-1, 0.00000E+0, 0.00000E+0,1.00000,0,  100.0,    13.137,     0.000, 901,1.0000
 92240,'8 ',     0.000,     0.000,     1.000,    -1.000,0.92562, 92240,    13.137, 0.00000E+0, 2.59000E-1, 0.00000E+0, 0.00000E+0,1.00000,0,  100.0,    13.137,     0.000, 901,1.0000
 92400,'1 ',     0.100,     0.000,     0.000,     0.000,0.95787, 92400,   100.000, 0.00000E+0, 1.00000E+0, 0.00000E+0, 0.00000E+0,1.00000,1,  100.0,   990.000,  -999.000, 901,1.0000
 92400,'2 ',     5.158,     0.000,     0.000,     0.000,0.95787, 92400,    15.000, 0.00000E+0, 2.10000E-1, 0.00000E+0, 0.00000E+0,1.00000,0,  100.0,    12.000,     0.000, 905,1.0000
 92400,'PO',     3.126,    -2.040,     6.000,    -5.000,0.95787, 92400,     8.000, 0.00000E+0, 1.40000E-1, 0.00000E+0, 0.00000E+0,1.00000,0,  100.0,     8.000,     0.000, 905,1.0000
 92411,'G1',    77.121,   -30.978,    42.480,   -42.480,0.96111, 92411,   140.000, 9.49400E-3, 2.12808E-1, 0.00000E+0, 0.00000E+0,1.00000,1,  100.0,   140.000,     0.000, 904,1.0000
 92420,'1 ',    70.000,   -48.191,    21.000,   -21.000,0.96786, 92420,   100.000, 0.00000E+0, 1.00000E+0, 0.00000E+0, 0.00000E+0,1.00000,0,  100.0,    70.000,     0.000, 901,1.0000
 92485,'G1',    27.543,   -11.288,    16.375,   -16.375,0.96217, 92485,    50.000, 9.49400E-3, 2.12808E-1, 0.00000E+0, 0.00000E+0,1.00000,1,  100.0,    50.000,     0.000, 904,1.0000
 92490,'G1',    27.543,   -10.988,    15.000,   -15.000,0.96664, 92490,    50.000, 9.49400E-3, 2.12808E-1, 0.00000E+0, 0.00000E+0,1.00000,1,  100.0,    50.000,     0.000, 904,1.0000
 92524,'1 ',    27.543,   -12.238,    15.000,   -15.000,0.94136, 92524,    50.000, 9.49400E-3, 2.12808E-1, 0.00000E+0, 0.00000E+0,1.00000,1,  100.0,    50.000,     0.000, 904,1.0000
 92524,'G1',    27.543,   -12.238,    15.000,   -15.000,0.94136, 92524,    50.000, 9.49400E-3, 2.12808E-1, 0.00000E+0, 0.00000E+0,1.00000,1,  100.0,    50.000,     0.000, 904,1.0000
 92540,'1 ',     0.000,     0.000,    13.000,   -12.000,0.94946, 92540,    40.000, 4.30000E-3, 2.12000E-1, 0.00000E+0, 0.00000E+0,1.00000,0,  100.0,    38.000,    15.000, 901,1.0000
 92540,'2 ',     0.000,     0.000,    13.000,   -12.000,0.94946, 92540,    40.000, 4.30000E-3, 2.12000E-1, 0.00000E+0, 0.00000E+0,1.00000,0,  100.0,    38.000,    15.000, 901,1.0000
 92540,'3 ',     0.000,     0.000,    13.000,   -12.000,0.94946, 92540,    40.000, 4.30000E-3, 2.12000E-1, 0.00000E+0, 0.00000E+0,1.00000,0,  100.0,    38.000,    15.000, 901,1.0000